data_image0
_chemical_formula_structural       Ti10O20Ti10O20Ti10O20Ti10O20Ti10O20Ti10O20Ti10O20Ti10O21H2OH2OH2OH2OH2OH2OH2OH2OH2OH2OH2OH2OH2OH2OH2OH2OH2OH2OH2OH2OH2OH2OH2OH2OH2OH2OH2OH2OH2OH2OH2OH2OH2OH2OH2OH2OH2OH2OH2OH2OH2OH2OH2OH2OH2OH2OH2OH2OH2OH2OH2OH2OH2OH2OH2OH2OH2OH2OH2OH2OH2OH2OH2OH2OH2OH2OH2OH2OH2OH2OH2OH2OH2OH2OH2OH2OH2OH2OH2OH2OH2OH2OH2OH2OH2OH2OH2OH2OH2OH2OH2OH2OH2OH2OH2OH2OH2OH2OH2OH2OH2OH2OH2OH2OH2OH2OH2OH2OH2OH2OH2OH2OH2OH2OH2OH2OH2OH2OH2OH2OH2
_chemical_formula_sum              "Ti80 O281 H242"
_cell_length_a       11.836
_cell_length_b       12.994
_cell_length_c       38.53
_cell_angle_alpha    90
_cell_angle_beta     90
_cell_angle_gamma    90

_space_group_name_H-M_alt    "P 1"
_space_group_IT_number       1

loop_
  _space_group_symop_operation_xyz
  'x, y, z'

loop_
  _atom_site_type_symbol
  _atom_site_label
  _atom_site_symmetry_multiplicity
  _atom_site_fract_x
  _atom_site_fract_y
  _atom_site_fract_z
  _atom_site_occupancy
  Ti  Ti1       1.0  0.20712  0.43625  0.79891  1.0000
  Ti  Ti2       1.0  0.20713  0.19644  0.88217  1.0000
  Ti  Ti3       1.0  0.19668  0.42870  0.96631  1.0000
  Ti  Ti4       1.0  0.19659  0.19413  0.05686  1.0000
  Ti  Ti5       1.0  0.20109  0.43928  0.13538  1.0000
  Ti  Ti6       1.0  0.08202  0.18868  0.79468  1.0000
  Ti  Ti7       1.0  0.08658  0.43422  0.88355  1.0000
  Ti  Ti8       1.0  0.07855  0.18518  0.97233  1.0000
  Ti  Ti9       1.0  0.07675  0.44240  0.05078  1.0000
  Ti  Ti10      1.0  0.08451  0.19302  0.14392  1.0000
  O   O1        1.0  0.20164  0.18146  0.76368  1.0000
  O   O2        1.0  0.20217  0.44222  0.84625  1.0000
  O   O3        1.0  0.20265  0.19397  0.93568  1.0000
  O   O4        1.0  0.20901  0.43792  0.02002  1.0000
  O   O5        1.0  0.21936  0.19620  0.10725  1.0000
  O   O6        1.0  0.20521  0.18181  0.83147  1.0000
  O   O7        1.0  0.20304  0.42891  0.91393  1.0000
  O   O8        1.0  0.20040  0.18527  0.00137  1.0000
  O   O9        1.0  0.21104  0.42953  0.08764  1.0000
  O   O10       1.0  0.21024  0.18704  0.17502  1.0000
  O   O11       1.0  0.07661  0.03631  0.79660  1.0000
  O   O12       1.0  0.08095  0.27989  0.88063  1.0000
  O   O13       1.0  0.08669  0.03558  0.97104  1.0000
  O   O14       1.0  0.07522  0.28714  0.05777  1.0000
  O   O15       1.0  0.07552  0.03081  0.14528  1.0000
  O   O16       1.0  0.07225  0.34258  0.79417  1.0000
  O   O17       1.0  0.07188  0.08629  0.88354  1.0000
  O   O18       1.0  0.08115  0.34041  0.96759  1.0000
  O   O19       1.0  0.08708  0.09512  0.05616  1.0000
  O   O20       1.0  0.08193  0.34580  0.14208  1.0000
  Ti  Ti11      1.0  0.45714  0.43163  0.79768  1.0000
  Ti  Ti12      1.0  0.46359  0.18367  0.87794  1.0000
  Ti  Ti13      1.0  0.45430  0.43157  0.96866  1.0000
  Ti  Ti14      1.0  0.44725  0.17884  0.05527  1.0000
  Ti  Ti15      1.0  0.45124  0.43226  0.13931  1.0000
  Ti  Ti16      1.0  0.32243  0.18151  0.79313  1.0000
  Ti  Ti17      1.0  0.33910  0.44941  0.88119  1.0000
  Ti  Ti18      1.0  0.32968  0.18374  0.96652  1.0000
  Ti  Ti19      1.0  0.33696  0.43693  0.05282  1.0000
  Ti  Ti20      1.0  0.32535  0.17699  0.14137  1.0000
  O   O21       1.0  0.45369  0.18583  0.76580  1.0000
  O   O22       1.0  0.46562  0.43139  0.84622  1.0000
  O   O23       1.0  0.45879  0.18205  0.93371  1.0000
  O   O24       1.0  0.45170  0.43076  0.01682  1.0000
  O   O25       1.0  0.45297  0.17421  0.10280  1.0000
  O   O26       1.0  0.45277  0.19107  0.83048  1.0000
  O   O27       1.0  0.45648  0.44355  0.91325  1.0000
  O   O28       1.0  0.45182  0.17351  0.99966  1.0000
  O   O29       1.0  0.45253  0.43362  0.08728  1.0000
  O   O30       1.0  0.46266  0.18683  0.17216  1.0000
  O   O31       1.0  0.32117  0.03257  0.79455  1.0000
  O   O32       1.0  0.33386  0.28693  0.88256  1.0000
  O   O33       1.0  0.32057  0.03014  0.97064  1.0000
  O   O34       1.0  0.33472  0.28292  0.05451  1.0000
  O   O35       1.0  0.33097  0.03531  0.13934  1.0000
  O   O36       1.0  0.32760  0.34060  0.79647  1.0000
  O   O37       1.0  0.33042  0.08644  0.88348  1.0000
  O   O38       1.0  0.32930  0.33850  0.96571  1.0000
  O   O39       1.0  0.32724  0.09226  0.05487  1.0000
  O   O40       1.0  0.33533  0.33495  0.13879  1.0000
  Ti  Ti21      1.0  0.71408  0.44011  0.79493  1.0000
  Ti  Ti22      1.0  0.70580  0.18856  0.88168  1.0000
  Ti  Ti23      1.0  0.70980  0.44177  0.96842  1.0000
  Ti  Ti24      1.0  0.69740  0.19700  0.05163  1.0000
  Ti  Ti25      1.0  0.70234  0.43381  0.14645  1.0000
  Ti  Ti26      1.0  0.56830  0.18733  0.79593  1.0000
  Ti  Ti27      1.0  0.58068  0.43858  0.88124  1.0000
  Ti  Ti28      1.0  0.57242  0.19357  0.96892  1.0000
  Ti  Ti29      1.0  0.58022  0.43629  0.05669  1.0000
  Ti  Ti30      1.0  0.58431  0.18910  0.13234  1.0000
  O   O41       1.0  0.71070  0.18289  0.75800  1.0000
  O   O42       1.0  0.70734  0.44536  0.84771  1.0000
  O   O43       1.0  0.70354  0.17958  0.93606  1.0000
  O   O44       1.0  0.70697  0.44161  0.01791  1.0000
  O   O45       1.0  0.70880  0.17756  0.10252  1.0000
  O   O46       1.0  0.69702  0.18242  0.83137  1.0000
  O   O47       1.0  0.70828  0.44887  0.91530  1.0000
  O   O48       1.0  0.69923  0.19478  0.00237  1.0000
  O   O49       1.0  0.70082  0.44226  0.08558  1.0000
  O   O50       1.0  0.69950  0.18057  0.16511  1.0000
  O   O51       1.0  0.57854  0.03341  0.79467  1.0000
  O   O52       1.0  0.58294  0.28643  0.88476  1.0000
  O   O53       1.0  0.57846  0.03085  0.96741  1.0000
  O   O54       1.0  0.57843  0.28883  0.05613  1.0000
  O   O55       1.0  0.58567  0.02282  0.14241  1.0000
  O   O56       1.0  0.59816  0.33413  0.79282  1.0000
  O   O57       1.0  0.57739  0.08572  0.88216  1.0000
  O   O58       1.0  0.58651  0.33740  0.96501  1.0000
  O   O59       1.0  0.58358  0.08554  0.05183  1.0000
  O   O60       1.0  0.57462  0.33411  0.13333  1.0000
  Ti  Ti31      1.0  0.95798  0.44511  0.79849  1.0000
  Ti  Ti32      1.0  0.94964  0.19084  0.88163  1.0000
  Ti  Ti33      1.0  0.94904  0.43313  0.96495  1.0000
  Ti  Ti34      1.0  0.94624  0.18758  0.05658  1.0000
  Ti  Ti35      1.0  0.95162  0.44046  0.13520  1.0000
  Ti  Ti36      1.0  0.82862  0.19145  0.79455  1.0000
  Ti  Ti37      1.0  0.82361  0.44080  0.88160  1.0000
  Ti  Ti38      1.0  0.83196  0.18272  0.96321  1.0000
  Ti  Ti39      1.0  0.82613  0.43721  0.05297  1.0000
  Ti  Ti40      1.0  0.83466  0.17708  0.14158  1.0000
  O   O61       1.0  0.94747  0.18994  0.76439  1.0000
  O   O62       1.0  0.96181  0.44264  0.84699  1.0000
  O   O63       1.0  0.96509  0.18804  0.93391  1.0000
  O   O64       1.0  0.96014  0.44076  0.02048  1.0000
  O   O65       1.0  0.95292  0.18659  0.10613  1.0000
  O   O66       1.0  0.94886  0.19545  0.83054  1.0000
  O   O67       1.0  0.95303  0.43219  0.91400  1.0000
  O   O68       1.0  0.95067  0.18892  0.00320  1.0000
  O   O69       1.0  0.95145  0.44211  0.08732  1.0000
  O   O70       1.0  0.95120  0.19335  0.17273  1.0000
  O   O71       1.0  0.82260  0.03659  0.80224  1.0000
  O   O72       1.0  0.82551  0.28708  0.88610  1.0000
  O   O73       1.0  0.83379  0.03507  0.96588  1.0000
  O   O74       1.0  0.82857  0.28545  0.05210  1.0000
  O   O75       1.0  0.83678  0.03009  0.14150  1.0000
  O   O76       1.0  0.82829  0.33946  0.79888  1.0000
  O   O77       1.0  0.82913  0.08868  0.88353  1.0000
  O   O78       1.0  0.82234  0.33744  0.96592  1.0000
  O   O79       1.0  0.82785  0.09021  0.05195  1.0000
  O   O80       1.0  0.83273  0.34555  0.13823  1.0000
  Ti  Ti41      1.0  0.20573  0.93388  0.80234  1.0000
  Ti  Ti42      1.0  0.19481  0.69801  0.88167  1.0000
  Ti  Ti43      1.0  0.20646  0.92829  0.96425  1.0000
  Ti  Ti44      1.0  0.20559  0.68702  0.05989  1.0000
  Ti  Ti45      1.0  0.19830  0.92600  0.13926  1.0000
  Ti  Ti46      1.0  0.07368  0.68324  0.79732  1.0000
  Ti  Ti47      1.0  0.08546  0.95144  0.88375  1.0000
  Ti  Ti48      1.0  0.08036  0.68168  0.97123  1.0000
  Ti  Ti49      1.0  0.07888  0.94687  0.05183  1.0000
  Ti  Ti50      1.0  0.08369  0.68777  0.14795  1.0000
  O   O81       1.0  0.20258  0.69767  0.76692  1.0000
  O   O82       1.0  0.20062  0.93885  0.85102  1.0000
  O   O83       1.0  0.20033  0.67980  0.93257  1.0000
  O   O84       1.0  0.20482  0.93369  0.02155  1.0000
  O   O85       1.0  0.19532  0.69350  0.10909  1.0000
  O   O86       1.0  0.22124  0.68473  0.83177  1.0000
  O   O87       1.0  0.19932  0.93834  0.91658  1.0000
  O   O88       1.0  0.21021  0.68103  0.00020  1.0000
  O   O89       1.0  0.20711  0.94265  0.08639  1.0000
  O   O90       1.0  0.21118  0.68552  0.17542  1.0000
  O   O91       1.0  0.08252  0.53856  0.79193  1.0000
  O   O92       1.0  0.07815  0.78642  0.88257  1.0000
  O   O93       1.0  0.08229  0.53306  0.96676  1.0000
  O   O94       1.0  0.07478  0.78995  0.05589  1.0000
  O   O95       1.0  0.08096  0.53285  0.14215  1.0000
  O   O96       1.0  0.08563  0.84591  0.79870  1.0000
  O   O97       1.0  0.07630  0.58866  0.88206  1.0000
  O   O98       1.0  0.07872  0.83711  0.96918  1.0000
  O   O99       1.0  0.09170  0.58954  0.05339  1.0000
  O   O100      1.0  0.08646  0.83811  0.14125  1.0000
  Ti  Ti51      1.0  0.45558  0.93732  0.79720  1.0000
  Ti  Ti52      1.0  0.45752  0.68551  0.88297  1.0000
  Ti  Ti53      1.0  0.45454  0.94197  0.96802  1.0000
  Ti  Ti54      1.0  0.45456  0.69262  0.04790  1.0000
  Ti  Ti55      1.0  0.45512  0.93294  0.13319  1.0000
  Ti  Ti56      1.0  0.32507  0.69210  0.79251  1.0000
  Ti  Ti57      1.0  0.33564  0.94530  0.88366  1.0000
  Ti  Ti58      1.0  0.32487  0.68050  0.96459  1.0000
  Ti  Ti59      1.0  0.31666  0.93872  0.05465  1.0000
  Ti  Ti60      1.0  0.33717  0.68289  0.14457  1.0000
  O   O101      1.0  0.44740  0.68098  0.76306  1.0000
  O   O102      1.0  0.44134  0.93043  0.84775  1.0000
  O   O103      1.0  0.45484  0.68815  0.93330  1.0000
  O   O104      1.0  0.45073  0.93496  0.02009  1.0000
  O   O105      1.0  0.45210  0.68459  0.10848  1.0000
  O   O106      1.0  0.46492  0.66838  0.82897  1.0000
  O   O107      1.0  0.45461  0.93598  0.91672  1.0000
  O   O108      1.0  0.45273  0.68009  0.00080  1.0000
  O   O109      1.0  0.46587  0.93644  0.08457  1.0000
  O   O110      1.0  0.45972  0.69594  0.17397  1.0000
  O   O111      1.0  0.33292  0.53009  0.78848  1.0000
  O   O112      1.0  0.33164  0.78323  0.88180  1.0000
  O   O113      1.0  0.32861  0.52795  0.96527  1.0000
  O   O114      1.0  0.33409  0.78930  0.05238  1.0000
  O   O115      1.0  0.32813  0.53523  0.13774  1.0000
  O   O116      1.0  0.33433  0.84332  0.78798  1.0000
  O   O117      1.0  0.32699  0.58427  0.88269  1.0000
  O   O118      1.0  0.33576  0.83492  0.96504  1.0000
  O   O119      1.0  0.32404  0.58866  0.05466  1.0000
  O   O120      1.0  0.33030  0.84353  0.13673  1.0000
  Ti  Ti61      1.0  0.70796  0.93588  0.79404  1.0000
  Ti  Ti62      1.0  0.70353  0.68105  0.87731  1.0000
  Ti  Ti63      1.0  0.70650  0.94278  0.96760  1.0000
  Ti  Ti64      1.0  0.70207  0.68606  0.05550  1.0000
  Ti  Ti65      1.0  0.69904  0.93092  0.13453  1.0000
  Ti  Ti66      1.0  0.56805  0.67887  0.79476  1.0000
  Ti  Ti67      1.0  0.58091  0.92675  0.88230  1.0000
  Ti  Ti68      1.0  0.58696  0.68878  0.96788  1.0000
  Ti  Ti69      1.0  0.57653  0.93957  0.04717  1.0000
  Ti  Ti70      1.0  0.57848  0.68212  0.13712  1.0000
  O   O121      1.0  0.70987  0.68742  0.76058  1.0000
  O   O122      1.0  0.69289  0.93544  0.84892  1.0000
  O   O123      1.0  0.70893  0.68264  0.93229  1.0000
  O   O124      1.0  0.71143  0.94605  0.01878  1.0000
  O   O125      1.0  0.70803  0.68402  0.10445  1.0000
  O   O126      1.0  0.70990  0.67519  0.82843  1.0000
  O   O127      1.0  0.70157  0.93460  0.91501  1.0000
  O   O128      1.0  0.70255  0.69084  0.00078  1.0000
  O   O129      1.0  0.70796  0.94399  0.08631  1.0000
  O   O130      1.0  0.71050  0.70285  0.17397  1.0000
  O   O131      1.0  0.57895  0.52946  0.79391  1.0000
  O   O132      1.0  0.57850  0.77904  0.88211  1.0000
  O   O133      1.0  0.57663  0.52939  0.96902  1.0000
  O   O134      1.0  0.57508  0.78465  0.04856  1.0000
  O   O135      1.0  0.59048  0.53239  0.14343  1.0000
  O   O136      1.0  0.56642  0.83930  0.79386  1.0000
  O   O137      1.0  0.57808  0.58662  0.88423  1.0000
  O   O138      1.0  0.57846  0.84104  0.96925  1.0000
  O   O139      1.0  0.57924  0.59194  0.05471  1.0000
  O   O140      1.0  0.58022  0.83195  0.13827  1.0000
  Ti  Ti71      1.0  0.95164  0.94524  0.80128  1.0000
  Ti  Ti72      1.0  0.95788  0.68858  0.88194  1.0000
  Ti  Ti73      1.0  0.96278  0.93837  0.96564  1.0000
  Ti  Ti74      1.0  0.95934  0.69325  0.05676  1.0000
  Ti  Ti75      1.0  0.95169  0.93539  0.13585  1.0000
  Ti  Ti76      1.0  0.82386  0.69525  0.79030  1.0000
  Ti  Ti77      1.0  0.82630  0.93256  0.88324  1.0000
  Ti  Ti78      1.0  0.82856  0.69266  0.96291  1.0000
  Ti  Ti79      1.0  0.82251  0.94568  0.05493  1.0000
  Ti  Ti80      1.0  0.84282  0.68735  0.13951  1.0000
  O   O141      1.0  0.95421  0.68061  0.76346  1.0000
  O   O142      1.0  0.95282  0.93599  0.85044  1.0000
  O   O143      1.0  0.95477  0.69668  0.93470  1.0000
  O   O144      1.0  0.96214  0.94971  0.02117  1.0000
  O   O145      1.0  0.96666  0.67593  0.10665  1.0000
  O   O146      1.0  0.95495  0.69208  0.83087  1.0000
  O   O147      1.0  0.95108  0.94665  0.91800  1.0000
  O   O148      1.0  0.95916  0.69187  0.00023  1.0000
  O   O149      1.0  0.95927  0.93705  0.08790  1.0000
  O   O150      1.0  0.95479  0.69222  0.17456  1.0000
  O   O151      1.0  0.82908  0.53432  0.79204  1.0000
  O   O152      1.0  0.82268  0.78450  0.88260  1.0000
  O   O153      1.0  0.83444  0.53694  0.96822  1.0000
  O   O154      1.0  0.83843  0.78912  0.05538  1.0000
  O   O155      1.0  0.82935  0.53038  0.14201  1.0000
  O   O156      1.0  0.82682  0.84587  0.79779  1.0000
  O   O157      1.0  0.82739  0.58916  0.88231  1.0000
  O   O158      1.0  0.83463  0.83373  0.97036  1.0000
  O   O159      1.0  0.83143  0.58713  0.04858  1.0000
  O   O160      1.0  0.82753  0.83739  0.13819  1.0000
  O   O161      1.0  0.22695  0.93037  0.19212  1.0000
  H   H1        1.0  0.30464  0.92519  0.19737  1.0000
  H   H2        1.0  0.19189  0.99029  0.20830  1.0000
  O   O162      1.0  0.22855  0.43867  0.19058  1.0000
  H   H3        1.0  0.30226  0.40580  0.19634  1.0000
  H   H4        1.0  0.17984  0.43030  0.21152  1.0000
  O   O163      1.0  0.68562  0.92943  0.19408  1.0000
  H   H5        1.0  0.72907  0.87172  0.20292  1.0000
  H   H6        1.0  0.71894  0.99260  0.20511  1.0000
  O   O164      1.0  0.69165  0.42142  0.19364  1.0000
  H   H7        1.0  0.74220  0.36677  0.19966  1.0000
  H   H8        1.0  0.74752  0.53699  0.24121  1.0000
  O   O165      1.0  0.95573  0.91857  0.19511  1.0000
  H   H9        1.0  0.99408  0.97411  0.20629  1.0000
  H   H10       1.0  0.99022  0.85911  0.20911  1.0000
  O   O166      1.0  0.96792  0.45903  0.19443  1.0000
  H   H11       1.0  0.89852  0.49797  0.20303  1.0000
  H   H12       1.0  0.95015  0.39212  0.20666  1.0000
  O   O167      1.0  0.46324  0.89045  0.19333  1.0000
  H   H13       1.0  0.54032  0.90456  0.20332  1.0000
  H   H14       1.0  0.46225  0.81462  0.18882  1.0000
  O   O168      1.0  0.46023  0.41415  0.18755  1.0000
  H   H15       1.0  0.53376  0.40870  0.19844  1.0000
  H   H16       1.0  0.47702  0.25621  0.18345  1.0000
  O   O169      1.0  0.94193  0.94539  0.74481  1.0000
  H   H17       1.0  0.86213  0.94209  0.73903  1.0000
  H   H18       1.0  0.97226  0.89302  0.72837  1.0000
  O   O170      1.0  0.95337  0.43295  0.74135  1.0000
  H   H19       1.0  0.02703  0.39707  0.74119  1.0000
  H   H20       1.0  0.96994  0.49962  0.72750  1.0000
  O   O171      1.0  0.44941  0.94494  0.74022  1.0000
  H   H21       1.0  0.36974  0.96264  0.74038  1.0000
  H   H22       1.0  0.45400  0.87490  0.72656  1.0000
  O   O172      1.0  0.43978  0.42957  0.74211  1.0000
  H   H23       1.0  0.35663  0.42891  0.73637  1.0000
  H   H24       1.0  0.47210  0.48968  0.72786  1.0000
  O   O173      1.0  0.21795  0.97537  0.73919  1.0000
  H   H25       1.0  0.17901  0.03898  0.73901  1.0000
  H   H26       1.0  0.17731  0.93602  0.72308  1.0000
  O   O174      1.0  0.20080  0.40227  0.73750  1.0000
  H   H27       1.0  0.20223  0.46926  0.72213  1.0000
  H   H28       1.0  0.19325  0.34067  0.72282  1.0000
  O   O175      1.0  0.72184  0.97700  0.74240  1.0000
  H   H29       1.0  0.71016  0.10504  0.75213  1.0000
  H   H30       1.0  0.66321  0.94672  0.72782  1.0000
  O   O176      1.0  0.70869  0.46054  0.73880  1.0000
  H   H31       1.0  0.73305  0.39424  0.72680  1.0000
  H   H32       1.0  0.74989  0.52166  0.72673  1.0000
  O   O177      1.0  0.55572  0.76321  0.27632  1.0000
  H   H33       1.0  0.51500  0.81783  0.28834  1.0000
  H   H34       1.0  0.51347  0.71030  0.26224  1.0000
  O   O178      1.0  0.95972  0.15935  0.54782  1.0000
  H   H35       1.0  0.92411  0.19733  0.52865  1.0000
  H   H36       1.0  0.02224  0.20283  0.55371  1.0000
  O   O179      1.0  0.51562  0.39931  0.38831  1.0000
  H   H37       1.0  0.58394  0.41696  0.40561  1.0000
  H   H38       1.0  0.52892  0.32744  0.38457  1.0000
  O   O180      1.0  0.20736  0.48493  0.48624  1.0000
  H   H39       1.0  0.20978  0.40837  0.48476  1.0000
  H   H40       1.0  0.16695  0.50025  0.50896  1.0000
  O   O181      1.0  0.23434  0.64210  0.24562  1.0000
  H   H41       1.0  0.24448  0.65645  0.22052  1.0000
  H   H42       1.0  0.25073  0.71246  0.25535  1.0000
  O   O182      1.0  0.56226  0.20543  0.36868  1.0000
  H   H43       1.0  0.63964  0.18883  0.36078  1.0000
  H   H44       1.0  0.52027  0.21742  0.34797  1.0000
  O   O183      1.0  0.11064  0.78525  0.64566  1.0000
  H   H45       1.0  0.08806  0.73986  0.62704  1.0000
  H   H46       1.0  0.19211  0.79237  0.64491  1.0000
  O   O184      1.0  0.09130  0.81824  0.71004  1.0000
  H   H47       1.0  0.08047  0.78150  0.68594  1.0000
  H   H48       1.0  0.11265  0.76893  0.72646  1.0000
  O   O185      1.0  0.04165  0.11984  0.32219  1.0000
  H   H49       1.0  0.10471  0.10911  0.33939  1.0000
  H   H50       1.0  0.05510  0.05901  0.30571  1.0000
  O   O186      1.0  0.12658  0.08050  0.67004  1.0000
  H   H51       1.0  0.05135  0.09980  0.68352  1.0000
  H   H52       1.0  0.09162  0.05256  0.64833  1.0000
  O   O187      1.0  0.34630  0.06653  0.58398  1.0000
  H   H53       1.0  0.33769  0.03992  0.60660  1.0000
  H   H54       1.0  0.33343  0.14306  0.58470  1.0000
  O   O188      1.0  0.96540  0.85995  0.37686  1.0000
  H   H55       1.0  0.03715  0.86156  0.36472  1.0000
  H   H56       1.0  0.92754  0.92684  0.37035  1.0000
  O   O189      1.0  0.01463  0.72450  0.24675  1.0000
  H   H57       1.0  0.09381  0.70328  0.24224  1.0000
  H   H58       1.0  0.98782  0.69869  0.22412  1.0000
  O   O190      1.0  0.87832  0.31120  0.22518  1.0000
  H   H59       1.0  0.89365  0.30448  0.24892  1.0000
  H   H60       1.0  0.88240  0.25065  0.21189  1.0000
  O   O191      1.0  0.33696  0.80641  0.54749  1.0000
  H   H61       1.0  0.32203  0.78065  0.52320  1.0000
  H   H62       1.0  0.35260  0.88188  0.54257  1.0000
  O   O192      1.0  0.27806  0.78501  0.47599  1.0000
  H   H63       1.0  0.31031  0.84620  0.46330  1.0000
  H   H64       1.0  0.19692  0.79974  0.47035  1.0000
  O   O193      1.0  0.54785  0.56878  0.69374  1.0000
  H   H65       1.0  0.60540  0.55532  0.70960  1.0000
  H   H66       1.0  0.56350  0.53685  0.67247  1.0000
  O   O194      1.0  0.29880  0.99262  0.45575  1.0000
  H   H67       1.0  0.22813  0.03490  0.46052  1.0000
  H   H68       1.0  0.36024  0.02976  0.44284  1.0000
  O   O195      1.0  0.30721  0.56916  0.63644  1.0000
  H   H69       1.0  0.28498  0.57313  0.66128  1.0000
  H   H70       1.0  0.38644  0.54407  0.63466  1.0000
  O   O196      1.0  0.53558  0.26304  0.46126  1.0000
  H   H71       1.0  0.48775  0.29477  0.44363  1.0000
  H   H72       1.0  0.60674  0.30908  0.46174  1.0000
  O   O197      1.0  0.76164  0.68187  0.29787  1.0000
  H   H73       1.0  0.67685  0.69751  0.29357  1.0000
  H   H74       1.0  0.76790  0.67652  0.32317  1.0000
  O   O198      1.0  0.80645  0.37092  0.54411  1.0000
  H   H75       1.0  0.82649  0.33317  0.52277  1.0000
  H   H76       1.0  0.74750  0.33386  0.55528  1.0000
  O   O199      1.0  0.60634  0.36554  0.31315  1.0000
  H   H77       1.0  0.61445  0.39178  0.33581  1.0000
  H   H78       1.0  0.53424  0.40071  0.30369  1.0000
  O   O200      1.0  0.82101  0.97068  0.67966  1.0000
  H   H79       1.0  0.76260  0.01170  0.66689  1.0000
  H   H80       1.0  0.89105  0.96394  0.66351  1.0000
  O   O201      1.0  0.11440  0.07689  0.48184  1.0000
  H   H81       1.0  0.15077  0.05741  0.50329  1.0000
  H   H82       1.0  0.11652  0.15395  0.47875  1.0000
  O   O202      1.0  0.77180  0.93105  0.46252  1.0000
  H   H83       1.0  0.76152  0.89286  0.44190  1.0000
  H   H84       1.0  0.85172  0.92310  0.47263  1.0000
  O   O203      1.0  0.11496  0.04634  0.22771  1.0000
  H   H85       1.0  0.08579  0.00164  0.24557  1.0000
  H   H86       1.0  0.13509  0.12059  0.23662  1.0000
  O   O204      1.0  0.91207  0.65274  0.46221  1.0000
  H   H87       1.0  0.93674  0.66066  0.48635  1.0000
  H   H88       1.0  0.95373  0.70683  0.45136  1.0000
  O   O205      1.0  0.68454  0.79445  0.69925  1.0000
  H   H89       1.0  0.69419  0.76853  0.72340  1.0000
  H   H90       1.0  0.74630  0.84145  0.69069  1.0000
  O   O206      1.0  0.20652  0.26950  0.47822  1.0000
  H   H91       1.0  0.27116  0.24320  0.48947  1.0000
  H   H92       1.0  0.22745  0.27504  0.45305  1.0000
  O   O207      1.0  0.52887  0.43910  0.55499  1.0000
  H   H93       1.0  0.47632  0.47542  0.53714  1.0000
  H   H94       1.0  0.54789  0.36910  0.54300  1.0000
  O   O208      1.0  0.23733  0.10604  0.37500  1.0000
  H   H95       1.0  0.26681  0.05668  0.39062  1.0000
  H   H96       1.0  0.24001  0.17167  0.38712  1.0000
  O   O209      1.0  0.59668  0.87092  0.50074  1.0000
  H   H97       1.0  0.66108  0.89596  0.48635  1.0000
  H   H98       1.0  0.53752  0.92088  0.50720  1.0000
  O   O210      1.0  0.93045  0.15678  0.69684  1.0000
  H   H99       1.0  0.94825  0.16373  0.72205  1.0000
  H   H100      1.0  0.86797  0.10476  0.69730  1.0000
  O   O211      1.0  0.31465  0.03109  0.31359  1.0000
  H   H101      1.0  0.28396  0.05872  0.33600  1.0000
  H   H102      1.0  0.34240  0.09708  0.30234  1.0000
  O   O212      1.0  0.29741  0.52361  0.32323  1.0000
  H   H103      1.0  0.31312  0.47623  0.30322  1.0000
  H   H104      1.0  0.23294  0.57382  0.31670  1.0000
  O   O213      1.0  0.64296  0.25645  0.57606  1.0000
  H   H105      1.0  0.62431  0.27761  0.59980  1.0000
  H   H106      1.0  0.62492  0.18136  0.57675  1.0000
  O   O214      1.0  0.70548  0.11947  0.45115  1.0000
  H   H107      1.0  0.62506  0.13690  0.45022  1.0000
  H   H108      1.0  0.72063  0.04167  0.45053  1.0000
  O   O215      1.0  0.04404  0.82343  0.44370  1.0000
  H   H109      1.0  0.04591  0.88209  0.45968  1.0000
  H   H110      1.0  0.03053  0.85140  0.42071  1.0000
  O   O216      1.0  0.81973  0.60203  0.68186  1.0000
  H   H111      1.0  0.79248  0.57377  0.65848  1.0000
  H   H112      1.0  0.77446  0.66479  0.68646  1.0000
  O   O217      1.0  0.33977  0.81505  0.64341  1.0000
  H   H113      1.0  0.36529  0.79005  0.66465  1.0000
  H   H114      1.0  0.34488  0.89279  0.64525  1.0000
  O   O218      1.0  0.56525  0.66310  0.50134  1.0000
  H   H115      1.0  0.49200  0.63224  0.50574  1.0000
  H   H116      1.0  0.56414  0.73667  0.49777  1.0000
  O   O219      1.0  0.22179  0.57682  0.70472  1.0000
  H   H117      1.0  0.13915  0.59987  0.70328  1.0000
  H   H118      1.0  0.25875  0.62161  0.72122  1.0000
  O   O220      1.0  0.47347  0.03260  0.41623  1.0000
  H   H119      1.0  0.49723  0.95860  0.40857  1.0000
  H   H120      1.0  0.49523  0.08613  0.40132  1.0000
  O   O221      1.0  0.33486  0.27880  0.57641  1.0000
  H   H121      1.0  0.25669  0.29652  0.57116  1.0000
  H   H122      1.0  0.36533  0.32091  0.59361  1.0000
  O   O222      1.0  0.84793  0.24847  0.48676  1.0000
  H   H123      1.0  0.90440  0.26526  0.46789  1.0000
  H   H124      1.0  0.78964  0.19384  0.48058  1.0000
  O   O223      1.0  0.42997  0.29898  0.67826  1.0000
  H   H125      1.0  0.44359  0.34102  0.69969  1.0000
  H   H126      1.0  0.34196  0.29839  0.67529  1.0000
  O   O224      1.0  0.22689  0.30746  0.41162  1.0000
  H   H127      1.0  0.14768  0.32488  0.40575  1.0000
  H   H128      1.0  0.25825  0.37654  0.40452  1.0000
  O   O225      1.0  0.40642  0.98200  0.51889  1.0000
  H   H129      1.0  0.42644  0.04839  0.52798  1.0000
  H   H130      1.0  0.36415  0.99206  0.49725  1.0000
  O   O226      1.0  0.46897  0.08539  0.23939  1.0000
  H   H131      1.0  0.44168  0.09395  0.21601  1.0000
  H   H132      1.0  0.55854  0.08364  0.23513  1.0000
  O   O227      1.0  0.10653  0.51751  0.54183  1.0000
  H   H133      1.0  0.03065  0.54854  0.54103  1.0000
  H   H134      1.0  0.15247  0.56897  0.55503  1.0000
  O   O228      1.0  0.90818  0.86340  0.56380  1.0000
  H   H135      1.0  0.93772  0.91802  0.58020  1.0000
  H   H136      1.0  0.82777  0.88189  0.56407  1.0000
  O   O229      1.0  0.68461  0.07466  0.64485  1.0000
  H   H137      1.0  0.62694  0.09242  0.66339  1.0000
  H   H138      1.0  0.62890  0.05899  0.62322  1.0000
  O   O230      1.0  0.08481  0.61817  0.31130  1.0000
  H   H139      1.0  0.04165  0.58459  0.33157  1.0000
  H   H140      1.0  0.02731  0.64720  0.29677  1.0000
  O   O231      1.0  0.68046  0.77386  0.41484  1.0000
  H   H141      1.0  0.60903  0.80665  0.40404  1.0000
  H   H142      1.0  0.65885  0.71508  0.42995  1.0000
  O   O232      1.0  0.96339  0.31278  0.43012  1.0000
  H   H143      1.0  0.89556  0.30501  0.41690  1.0000
  H   H144      1.0  0.98508  0.38619  0.43018  1.0000
  O   O233      1.0  0.16388  0.78362  0.34729  1.0000
  H   H145      1.0  0.12601  0.72166  0.33496  1.0000
  H   H146      1.0  0.17993  0.75147  0.37031  1.0000
  O   O234      1.0  0.88639  0.17477  0.61825  1.0000
  H   H147      1.0  0.80900  0.15823  0.62533  1.0000
  H   H148      1.0  0.88124  0.21143  0.59638  1.0000
  O   O235      1.0  0.69942  0.01405  0.31682  1.0000
  H   H149      1.0  0.69859  0.07552  0.30128  1.0000
  H   H150      1.0  0.71298  0.95826  0.30017  1.0000
  O   O236      1.0  0.69450  0.40308  0.45135  1.0000
  H   H151      1.0  0.70238  0.48019  0.45547  1.0000
  H   H152      1.0  0.76190  0.36645  0.46029  1.0000
  O   O237      1.0  0.42146  0.42969  0.27827  1.0000
  H   H153      1.0  0.40607  0.36078  0.27117  1.0000
  H   H154      1.0  0.44719  0.47257  0.25718  1.0000
  O   O238      1.0  0.62532  0.34308  0.64104  1.0000
  H   H155      1.0  0.67880  0.31989  0.65895  1.0000
  H   H156      1.0  0.54930  0.33735  0.65192  1.0000
  O   O239      1.0  0.94620  0.66081  0.53380  1.0000
  H   H157      1.0  0.93374  0.73406  0.53823  1.0000
  H   H158      1.0  0.87048  0.62941  0.54148  1.0000
  O   O240      1.0  0.03963  0.51011  0.43721  1.0000
  H   H159      1.0  0.10473  0.50927  0.45197  1.0000
  H   H160      1.0  0.98912  0.54850  0.45210  1.0000
  O   O241      1.0  0.87637  0.04590  0.35576  1.0000
  H   H161      1.0  0.80396  0.03495  0.34415  1.0000
  H   H162      1.0  0.93163  0.08148  0.34105  1.0000
  O   O242      1.0  0.18288  0.23685  0.24169  1.0000
  H   H163      1.0  0.14824  0.29749  0.25455  1.0000
  H   H164      1.0  0.19463  0.24412  0.21567  1.0000
  O   O243      1.0  0.52693  0.12374  0.68942  1.0000
  H   H165      1.0  0.48650  0.19175  0.68765  1.0000
  H   H166      1.0  0.51080  0.09486  0.71280  1.0000
  O   O244      1.0  0.23527  0.84379  0.28081  1.0000
  H   H167      1.0  0.21143  0.82396  0.30520  1.0000
  H   H168      1.0  0.29367  0.89511  0.28317  1.0000
  O   O245      1.0  0.67081  0.86647  0.56318  1.0000
  H   H169      1.0  0.65804  0.85528  0.53695  1.0000
  H   H170      1.0  0.63666  0.81079  0.57677  1.0000
  O   O246      1.0  0.01237  0.00078  0.61053  1.0000
  H   H171      1.0  0.95987  0.06147  0.60693  1.0000
  H   H172      1.0  0.06140  0.99955  0.58918  1.0000
  O   O247      1.0  0.09556  0.46631  0.25169  1.0000
  H   H173      1.0  0.04786  0.48037  0.23210  1.0000
  H   H174      1.0  0.14245  0.52551  0.25596  1.0000
  O   O248      1.0  0.95193  0.94046  0.50338  1.0000
  H   H175      1.0  0.94543  0.90538  0.52489  1.0000
  H   H176      1.0  0.97403  0.01405  0.50699  1.0000
  O   O249      1.0  0.68388  0.11373  0.22728  1.0000
  H   H177      1.0  0.68855  0.14465  0.20374  1.0000
  H   H178      1.0  0.69485  0.15802  0.24668  1.0000
  O   O250      1.0  0.46232  0.78319  0.70307  1.0000
  H   H179      1.0  0.46759  0.73587  0.72236  1.0000
  H   H180      1.0  0.54256  0.78447  0.69339  1.0000
  O   O251      1.0  0.78747  0.21409  0.39149  1.0000
  H   H181      1.0  0.83064  0.15777  0.38091  1.0000
  H   H182      1.0  0.76317  0.18092  0.41336  1.0000
  O   O252      1.0  0.79728  0.48590  0.62472  1.0000
  H   H183      1.0  0.72213  0.45389  0.62442  1.0000
  H   H184      1.0  0.80348  0.51572  0.60190  1.0000
  O   O253      1.0  0.56851  0.04556  0.58234  1.0000
  H   H185      1.0  0.59386  0.97208  0.57581  1.0000
  H   H186      1.0  0.48601  0.05410  0.58007  1.0000
  O   O254      1.0  0.10499  0.31887  0.57301  1.0000
  H   H187      1.0  0.08350  0.38232  0.55917  1.0000
  H   H188      1.0  0.08757  0.34007  0.59780  1.0000
  O   O255      1.0  0.38321  0.21296  0.28049  1.0000
  H   H189      1.0  0.41857  0.16775  0.26152  1.0000
  H   H190      1.0  0.30679  0.21742  0.27416  1.0000
  O   O256      1.0  0.19005  0.64910  0.58694  1.0000
  H   H191      1.0  0.21733  0.72056  0.58096  1.0000
  H   H192      1.0  0.22672  0.62497  0.60830  1.0000
  O   O257      1.0  0.81816  0.57916  0.23716  1.0000
  H   H193      1.0  0.73009  0.65977  0.19429  1.0000
  H   H194      1.0  0.81449  0.62606  0.25775  1.0000
  O   O258      1.0  0.33670  0.01942  0.65335  1.0000
  H   H195      1.0  0.39099  0.05664  0.66737  1.0000
  H   H196      1.0  0.26365  0.02785  0.66472  1.0000
  O   O259      1.0  0.49500  0.89897  0.31937  1.0000
  H   H197      1.0  0.56472  0.94310  0.31856  1.0000
  H   H198      1.0  0.43537  0.95163  0.31240  1.0000
  O   O260      1.0  0.21648  0.27898  0.66812  1.0000
  H   H199      1.0  0.15382  0.32128  0.65936  1.0000
  H   H200      1.0  0.18440  0.20514  0.66462  1.0000
  O   O261      1.0  0.76207  0.87487  0.26274  1.0000
  H   H201      1.0  0.68824  0.84335  0.26421  1.0000
  H   H202      1.0  0.80998  0.82329  0.27627  1.0000
  O   O262      1.0  0.15764  0.96656  0.55060  1.0000
  H   H203      1.0  0.19188  0.89759  0.54570  1.0000
  H   H204      1.0  0.22297  0.01067  0.55981  1.0000
  O   O263      1.0  0.47655  0.59277  0.23890  1.0000
  H   H205      1.0  0.40037  0.59906  0.24895  1.0000
  H   H206      1.0  0.46678  0.61432  0.21455  1.0000
  O   O264      1.0  0.01743  0.60212  0.70839  1.0000
  H   H207      1.0  0.99942  0.63729  0.73109  1.0000
  H   H208      1.0  0.95991  0.63056  0.69252  1.0000
  O   O265      1.0  0.92894  0.28554  0.29813  1.0000
  H   H209      1.0  0.89317  0.33032  0.31663  1.0000
  H   H210      1.0  0.97976  0.23787  0.30988  1.0000
  O   O266      1.0  0.49764  0.72993  0.58945  1.0000
  H   H211      1.0  0.46222  0.75961  0.61019  1.0000
  H   H212      1.0  0.43943  0.75814  0.57113  1.0000
  O   O267      1.0  0.83886  0.69460  0.36913  1.0000
  H   H213      1.0  0.88637  0.75641  0.37045  1.0000
  H   H214      1.0  0.77760  0.70829  0.38628  1.0000
  O   O268      1.0  0.70991  0.19782  0.28789  1.0000
  H   H215      1.0  0.78988  0.21467  0.29188  1.0000
  H   H216      1.0  0.66907  0.26407  0.29620  1.0000
  O   O269      1.0  0.77148  0.55613  0.55935  1.0000
  H   H217      1.0  0.69406  0.57385  0.55063  1.0000
  H   H218      1.0  0.79532  0.49079  0.54660  1.0000
  O   O270      1.0  0.03492  0.34076  0.63792  1.0000
  H   H219      1.0  0.98229  0.27884  0.63693  1.0000
  H   H220      1.0  0.97736  0.39584  0.64196  1.0000
  O   O271      1.0  0.37122  0.57774  0.52539  1.0000
  H   H221      1.0  0.31331  0.54625  0.51027  1.0000
  H   H222      1.0  0.32586  0.60177  0.54560  1.0000
  O   O272      1.0  0.75447  0.29331  0.70357  1.0000
  H   H223      1.0  0.73780  0.23360  0.72000  1.0000
  H   H224      1.0  0.83455  0.28487  0.69815  1.0000
  O   O273      1.0  0.51583  0.53555  0.62157  1.0000
  H   H225      1.0  0.51179  0.50211  0.59801  1.0000
  H   H226      1.0  0.51244  0.60843  0.61405  1.0000
  O   O274      1.0  0.99608  0.51498  0.37460  1.0000
  H   H227      1.0  0.94709  0.57647  0.37083  1.0000
  H   H228      1.0  0.04153  0.52440  0.39869  1.0000
  O   O275      1.0  0.82439  0.38718  0.35234  1.0000
  H   H229      1.0  0.79961  0.33706  0.37053  1.0000
  H   H230      1.0  0.89886  0.42036  0.36048  1.0000
  O   O276      1.0  0.49879  0.85156  0.38538  1.0000
  H   H231      1.0  0.45022  0.79448  0.39097  1.0000
  H   H232      1.0  0.48693  0.86503  0.36051  1.0000
  O   O277      1.0  0.01905  0.94177  0.28146  1.0000
  H   H233      1.0  0.95311  0.91895  0.27135  1.0000
  H   H234      1.0  0.08140  0.89005  0.27713  1.0000
  O   O278      1.0  0.31522  0.48331  0.39263  1.0000
  H   H235      1.0  0.39646  0.46177  0.39596  1.0000
  H   H236      1.0  0.30561  0.49369  0.36526  1.0000
  O   O279      1.0  0.29942  0.69468  0.39880  1.0000
  H   H237      1.0  0.31052  0.61891  0.39838  1.0000
  H   H238      1.0  0.29077  0.70105  0.42386  1.0000
  O   O280      1.0  0.69811  0.60536  0.45133  1.0000
  H   H239      1.0  0.77179  0.63823  0.45379  1.0000
  H   H240      1.0  0.65086  0.62727  0.47077  1.0000
  O   O281      1.0  0.42351  0.19425  0.51690  1.0000
  H   H241      1.0  0.47719  0.22811  0.50237  1.0000
  H   H242      1.0  0.42463  0.23580  0.53810  1.0000
