data_image0
_chemical_formula_structural       Ti10O20Ti10O20Ti10O20Ti10O20Ti10O20Ti10O20Ti10O20Ti10O21H2OH2OH2OH2OH2OH2OH2OH2OH2OH2OH2OH2OH2OH2OH2OH2OH2OH2OH2OH2OH2OH2OH2OH2OH2OH2OH2OH2OH2OH2OH2OH2OH2OH2OH2OH2OH2OH2OH2OH2OH2OH2OH2OH2OH2OH2OH2OH2OH2OH2OH2OH2OH2OH2OH2OH2OH2OH2OH2OH2OH2OH2OH2OH2OH2OH2OH2OH2OH2OH2OH2OH2OH2OH2OH2OH2OH2OH2OH2OH2OH2OH2OH2OH2OH2OH2OH2OH2OH2OH2OH2OH2OH2OH2OH2OH2OH2OH2OH2OH2OH2OH2OH2OH2OH2OH2OH2OH2OH2OH2OH2OH2OH2OH2OH2OH2OH2OH2OH2OH2OH2
_chemical_formula_sum              "Ti80 O281 H242"
_cell_length_a       11.836
_cell_length_b       12.994
_cell_length_c       38.53
_cell_angle_alpha    90
_cell_angle_beta     90
_cell_angle_gamma    90

_space_group_name_H-M_alt    "P 1"
_space_group_IT_number       1

loop_
  _space_group_symop_operation_xyz
  'x, y, z'

loop_
  _atom_site_type_symbol
  _atom_site_label
  _atom_site_symmetry_multiplicity
  _atom_site_fract_x
  _atom_site_fract_y
  _atom_site_fract_z
  _atom_site_occupancy
  Ti  Ti1       1.0  0.20712  0.43625  0.92868  1.0000
  Ti  Ti2       1.0  0.20713  0.19644  0.01194  1.0000
  Ti  Ti3       1.0  0.19668  0.42870  0.09608  1.0000
  Ti  Ti4       1.0  0.19659  0.19413  0.18663  1.0000
  Ti  Ti5       1.0  0.20109  0.43928  0.26515  1.0000
  Ti  Ti6       1.0  0.08202  0.18868  0.92445  1.0000
  Ti  Ti7       1.0  0.08658  0.43422  0.01332  1.0000
  Ti  Ti8       1.0  0.07855  0.18518  0.10210  1.0000
  Ti  Ti9       1.0  0.07675  0.44240  0.18055  1.0000
  Ti  Ti10      1.0  0.08451  0.19302  0.27369  1.0000
  O   O1        1.0  0.20164  0.18146  0.89345  1.0000
  O   O2        1.0  0.20217  0.44222  0.97602  1.0000
  O   O3        1.0  0.20265  0.19397  0.06545  1.0000
  O   O4        1.0  0.20901  0.43792  0.14979  1.0000
  O   O5        1.0  0.21936  0.19620  0.23702  1.0000
  O   O6        1.0  0.20521  0.18181  0.96124  1.0000
  O   O7        1.0  0.20304  0.42891  0.04370  1.0000
  O   O8        1.0  0.20040  0.18527  0.13114  1.0000
  O   O9        1.0  0.21104  0.42953  0.21741  1.0000
  O   O10       1.0  0.21024  0.18704  0.30479  1.0000
  O   O11       1.0  0.07661  0.03631  0.92637  1.0000
  O   O12       1.0  0.08095  0.27989  0.01040  1.0000
  O   O13       1.0  0.08669  0.03558  0.10081  1.0000
  O   O14       1.0  0.07522  0.28714  0.18754  1.0000
  O   O15       1.0  0.07552  0.03081  0.27505  1.0000
  O   O16       1.0  0.07225  0.34258  0.92394  1.0000
  O   O17       1.0  0.07188  0.08629  0.01331  1.0000
  O   O18       1.0  0.08115  0.34041  0.09736  1.0000
  O   O19       1.0  0.08708  0.09512  0.18593  1.0000
  O   O20       1.0  0.08193  0.34580  0.27185  1.0000
  Ti  Ti11      1.0  0.45714  0.43163  0.92745  1.0000
  Ti  Ti12      1.0  0.46359  0.18367  0.00771  1.0000
  Ti  Ti13      1.0  0.45430  0.43157  0.09843  1.0000
  Ti  Ti14      1.0  0.44725  0.17884  0.18504  1.0000
  Ti  Ti15      1.0  0.45124  0.43226  0.26908  1.0000
  Ti  Ti16      1.0  0.32243  0.18151  0.92290  1.0000
  Ti  Ti17      1.0  0.33910  0.44941  0.01096  1.0000
  Ti  Ti18      1.0  0.32968  0.18374  0.09629  1.0000
  Ti  Ti19      1.0  0.33696  0.43693  0.18259  1.0000
  Ti  Ti20      1.0  0.32535  0.17699  0.27114  1.0000
  O   O21       1.0  0.45369  0.18583  0.89557  1.0000
  O   O22       1.0  0.46562  0.43139  0.97599  1.0000
  O   O23       1.0  0.45879  0.18205  0.06348  1.0000
  O   O24       1.0  0.45170  0.43076  0.14659  1.0000
  O   O25       1.0  0.45297  0.17421  0.23257  1.0000
  O   O26       1.0  0.45277  0.19107  0.96025  1.0000
  O   O27       1.0  0.45648  0.44355  0.04302  1.0000
  O   O28       1.0  0.45182  0.17351  0.12943  1.0000
  O   O29       1.0  0.45253  0.43362  0.21705  1.0000
  O   O30       1.0  0.46266  0.18683  0.30193  1.0000
  O   O31       1.0  0.32117  0.03257  0.92432  1.0000
  O   O32       1.0  0.33386  0.28693  0.01233  1.0000
  O   O33       1.0  0.32057  0.03014  0.10041  1.0000
  O   O34       1.0  0.33472  0.28292  0.18428  1.0000
  O   O35       1.0  0.33097  0.03531  0.26911  1.0000
  O   O36       1.0  0.32760  0.34060  0.92624  1.0000
  O   O37       1.0  0.33042  0.08644  0.01325  1.0000
  O   O38       1.0  0.32930  0.33850  0.09548  1.0000
  O   O39       1.0  0.32724  0.09226  0.18464  1.0000
  O   O40       1.0  0.33533  0.33495  0.26856  1.0000
  Ti  Ti21      1.0  0.71408  0.44011  0.92470  1.0000
  Ti  Ti22      1.0  0.70580  0.18856  0.01145  1.0000
  Ti  Ti23      1.0  0.70980  0.44177  0.09819  1.0000
  Ti  Ti24      1.0  0.69740  0.19700  0.18140  1.0000
  Ti  Ti25      1.0  0.70234  0.43381  0.27622  1.0000
  Ti  Ti26      1.0  0.56830  0.18733  0.92570  1.0000
  Ti  Ti27      1.0  0.58068  0.43858  0.01101  1.0000
  Ti  Ti28      1.0  0.57242  0.19357  0.09869  1.0000
  Ti  Ti29      1.0  0.58022  0.43629  0.18646  1.0000
  Ti  Ti30      1.0  0.58431  0.18910  0.26211  1.0000
  O   O41       1.0  0.71070  0.18289  0.88777  1.0000
  O   O42       1.0  0.70734  0.44536  0.97748  1.0000
  O   O43       1.0  0.70354  0.17958  0.06583  1.0000
  O   O44       1.0  0.70697  0.44161  0.14768  1.0000
  O   O45       1.0  0.70880  0.17756  0.23229  1.0000
  O   O46       1.0  0.69702  0.18242  0.96114  1.0000
  O   O47       1.0  0.70828  0.44887  0.04507  1.0000
  O   O48       1.0  0.69923  0.19478  0.13214  1.0000
  O   O49       1.0  0.70082  0.44226  0.21535  1.0000
  O   O50       1.0  0.69950  0.18057  0.29488  1.0000
  O   O51       1.0  0.57854  0.03341  0.92444  1.0000
  O   O52       1.0  0.58294  0.28643  0.01453  1.0000
  O   O53       1.0  0.57846  0.03085  0.09718  1.0000
  O   O54       1.0  0.57843  0.28883  0.18590  1.0000
  O   O55       1.0  0.58567  0.02282  0.27218  1.0000
  O   O56       1.0  0.59816  0.33413  0.92259  1.0000
  O   O57       1.0  0.57739  0.08572  0.01193  1.0000
  O   O58       1.0  0.58651  0.33740  0.09478  1.0000
  O   O59       1.0  0.58358  0.08554  0.18160  1.0000
  O   O60       1.0  0.57462  0.33411  0.26310  1.0000
  Ti  Ti31      1.0  0.95798  0.44511  0.92826  1.0000
  Ti  Ti32      1.0  0.94964  0.19084  0.01140  1.0000
  Ti  Ti33      1.0  0.94904  0.43313  0.09472  1.0000
  Ti  Ti34      1.0  0.94624  0.18758  0.18635  1.0000
  Ti  Ti35      1.0  0.95162  0.44046  0.26497  1.0000
  Ti  Ti36      1.0  0.82862  0.19145  0.92432  1.0000
  Ti  Ti37      1.0  0.82361  0.44080  0.01137  1.0000
  Ti  Ti38      1.0  0.83196  0.18272  0.09298  1.0000
  Ti  Ti39      1.0  0.82613  0.43721  0.18274  1.0000
  Ti  Ti40      1.0  0.83466  0.17708  0.27135  1.0000
  O   O61       1.0  0.94747  0.18994  0.89416  1.0000
  O   O62       1.0  0.96181  0.44264  0.97676  1.0000
  O   O63       1.0  0.96509  0.18804  0.06368  1.0000
  O   O64       1.0  0.96014  0.44076  0.15025  1.0000
  O   O65       1.0  0.95292  0.18659  0.23590  1.0000
  O   O66       1.0  0.94886  0.19545  0.96031  1.0000
  O   O67       1.0  0.95303  0.43219  0.04377  1.0000
  O   O68       1.0  0.95067  0.18892  0.13297  1.0000
  O   O69       1.0  0.95145  0.44211  0.21709  1.0000
  O   O70       1.0  0.95120  0.19335  0.30250  1.0000
  O   O71       1.0  0.82260  0.03659  0.93201  1.0000
  O   O72       1.0  0.82551  0.28708  0.01587  1.0000
  O   O73       1.0  0.83379  0.03507  0.09565  1.0000
  O   O74       1.0  0.82857  0.28545  0.18187  1.0000
  O   O75       1.0  0.83678  0.03009  0.27127  1.0000
  O   O76       1.0  0.82829  0.33946  0.92865  1.0000
  O   O77       1.0  0.82913  0.08868  0.01330  1.0000
  O   O78       1.0  0.82234  0.33744  0.09569  1.0000
  O   O79       1.0  0.82785  0.09021  0.18172  1.0000
  O   O80       1.0  0.83273  0.34555  0.26800  1.0000
  Ti  Ti41      1.0  0.20573  0.93388  0.93211  1.0000
  Ti  Ti42      1.0  0.19481  0.69801  0.01144  1.0000
  Ti  Ti43      1.0  0.20646  0.92829  0.09402  1.0000
  Ti  Ti44      1.0  0.20559  0.68702  0.18966  1.0000
  Ti  Ti45      1.0  0.19830  0.92600  0.26903  1.0000
  Ti  Ti46      1.0  0.07368  0.68324  0.92709  1.0000
  Ti  Ti47      1.0  0.08546  0.95144  0.01352  1.0000
  Ti  Ti48      1.0  0.08036  0.68168  0.10100  1.0000
  Ti  Ti49      1.0  0.07888  0.94687  0.18160  1.0000
  Ti  Ti50      1.0  0.08369  0.68777  0.27772  1.0000
  O   O81       1.0  0.20258  0.69767  0.89669  1.0000
  O   O82       1.0  0.20062  0.93885  0.98079  1.0000
  O   O83       1.0  0.20033  0.67980  0.06234  1.0000
  O   O84       1.0  0.20482  0.93369  0.15132  1.0000
  O   O85       1.0  0.19532  0.69350  0.23886  1.0000
  O   O86       1.0  0.22124  0.68473  0.96154  1.0000
  O   O87       1.0  0.19932  0.93834  0.04635  1.0000
  O   O88       1.0  0.21021  0.68103  0.12997  1.0000
  O   O89       1.0  0.20711  0.94265  0.21616  1.0000
  O   O90       1.0  0.21118  0.68552  0.30519  1.0000
  O   O91       1.0  0.08252  0.53856  0.92170  1.0000
  O   O92       1.0  0.07815  0.78642  0.01234  1.0000
  O   O93       1.0  0.08229  0.53306  0.09653  1.0000
  O   O94       1.0  0.07478  0.78995  0.18566  1.0000
  O   O95       1.0  0.08096  0.53285  0.27192  1.0000
  O   O96       1.0  0.08563  0.84591  0.92847  1.0000
  O   O97       1.0  0.07630  0.58866  0.01183  1.0000
  O   O98       1.0  0.07872  0.83711  0.09895  1.0000
  O   O99       1.0  0.09170  0.58954  0.18316  1.0000
  O   O100      1.0  0.08646  0.83811  0.27102  1.0000
  Ti  Ti51      1.0  0.45558  0.93732  0.92697  1.0000
  Ti  Ti52      1.0  0.45752  0.68551  0.01274  1.0000
  Ti  Ti53      1.0  0.45454  0.94197  0.09779  1.0000
  Ti  Ti54      1.0  0.45456  0.69262  0.17767  1.0000
  Ti  Ti55      1.0  0.45512  0.93294  0.26296  1.0000
  Ti  Ti56      1.0  0.32507  0.69210  0.92228  1.0000
  Ti  Ti57      1.0  0.33564  0.94530  0.01343  1.0000
  Ti  Ti58      1.0  0.32487  0.68050  0.09436  1.0000
  Ti  Ti59      1.0  0.31666  0.93872  0.18442  1.0000
  Ti  Ti60      1.0  0.33717  0.68289  0.27434  1.0000
  O   O101      1.0  0.44740  0.68098  0.89283  1.0000
  O   O102      1.0  0.44134  0.93043  0.97752  1.0000
  O   O103      1.0  0.45484  0.68815  0.06307  1.0000
  O   O104      1.0  0.45073  0.93496  0.14986  1.0000
  O   O105      1.0  0.45210  0.68459  0.23825  1.0000
  O   O106      1.0  0.46492  0.66838  0.95874  1.0000
  O   O107      1.0  0.45461  0.93598  0.04649  1.0000
  O   O108      1.0  0.45273  0.68009  0.13057  1.0000
  O   O109      1.0  0.46587  0.93644  0.21434  1.0000
  O   O110      1.0  0.45972  0.69594  0.30374  1.0000
  O   O111      1.0  0.33292  0.53009  0.91825  1.0000
  O   O112      1.0  0.33164  0.78323  0.01157  1.0000
  O   O113      1.0  0.32861  0.52795  0.09504  1.0000
  O   O114      1.0  0.33409  0.78930  0.18215  1.0000
  O   O115      1.0  0.32813  0.53523  0.26751  1.0000
  O   O116      1.0  0.33433  0.84332  0.91775  1.0000
  O   O117      1.0  0.32699  0.58427  0.01246  1.0000
  O   O118      1.0  0.33576  0.83492  0.09481  1.0000
  O   O119      1.0  0.32404  0.58866  0.18443  1.0000
  O   O120      1.0  0.33030  0.84353  0.26650  1.0000
  Ti  Ti61      1.0  0.70796  0.93588  0.92381  1.0000
  Ti  Ti62      1.0  0.70353  0.68105  0.00708  1.0000
  Ti  Ti63      1.0  0.70650  0.94278  0.09737  1.0000
  Ti  Ti64      1.0  0.70207  0.68606  0.18527  1.0000
  Ti  Ti65      1.0  0.69904  0.93092  0.26430  1.0000
  Ti  Ti66      1.0  0.56805  0.67887  0.92453  1.0000
  Ti  Ti67      1.0  0.58091  0.92675  0.01207  1.0000
  Ti  Ti68      1.0  0.58696  0.68878  0.09765  1.0000
  Ti  Ti69      1.0  0.57653  0.93957  0.17694  1.0000
  Ti  Ti70      1.0  0.57848  0.68212  0.26689  1.0000
  O   O121      1.0  0.70987  0.68742  0.89035  1.0000
  O   O122      1.0  0.69289  0.93544  0.97869  1.0000
  O   O123      1.0  0.70893  0.68264  0.06206  1.0000
  O   O124      1.0  0.71143  0.94605  0.14855  1.0000
  O   O125      1.0  0.70803  0.68402  0.23422  1.0000
  O   O126      1.0  0.70990  0.67519  0.95820  1.0000
  O   O127      1.0  0.70157  0.93460  0.04478  1.0000
  O   O128      1.0  0.70255  0.69084  0.13055  1.0000
  O   O129      1.0  0.70796  0.94399  0.21608  1.0000
  O   O130      1.0  0.71050  0.70285  0.30374  1.0000
  O   O131      1.0  0.57895  0.52946  0.92368  1.0000
  O   O132      1.0  0.57850  0.77904  0.01188  1.0000
  O   O133      1.0  0.57663  0.52939  0.09879  1.0000
  O   O134      1.0  0.57508  0.78465  0.17833  1.0000
  O   O135      1.0  0.59048  0.53239  0.27320  1.0000
  O   O136      1.0  0.56642  0.83930  0.92363  1.0000
  O   O137      1.0  0.57808  0.58662  0.01400  1.0000
  O   O138      1.0  0.57846  0.84104  0.09902  1.0000
  O   O139      1.0  0.57924  0.59194  0.18448  1.0000
  O   O140      1.0  0.58022  0.83195  0.26804  1.0000
  Ti  Ti71      1.0  0.95164  0.94524  0.93105  1.0000
  Ti  Ti72      1.0  0.95788  0.68858  0.01171  1.0000
  Ti  Ti73      1.0  0.96278  0.93837  0.09541  1.0000
  Ti  Ti74      1.0  0.95934  0.69325  0.18653  1.0000
  Ti  Ti75      1.0  0.95169  0.93539  0.26562  1.0000
  Ti  Ti76      1.0  0.82386  0.69525  0.92007  1.0000
  Ti  Ti77      1.0  0.82630  0.93256  0.01301  1.0000
  Ti  Ti78      1.0  0.82856  0.69266  0.09268  1.0000
  Ti  Ti79      1.0  0.82251  0.94568  0.18470  1.0000
  Ti  Ti80      1.0  0.84282  0.68735  0.26928  1.0000
  O   O141      1.0  0.95421  0.68061  0.89323  1.0000
  O   O142      1.0  0.95282  0.93599  0.98021  1.0000
  O   O143      1.0  0.95477  0.69668  0.06447  1.0000
  O   O144      1.0  0.96214  0.94971  0.15094  1.0000
  O   O145      1.0  0.96666  0.67593  0.23642  1.0000
  O   O146      1.0  0.95495  0.69208  0.96064  1.0000
  O   O147      1.0  0.95108  0.94665  0.04777  1.0000
  O   O148      1.0  0.95916  0.69187  0.13000  1.0000
  O   O149      1.0  0.95927  0.93705  0.21767  1.0000
  O   O150      1.0  0.95479  0.69222  0.30433  1.0000
  O   O151      1.0  0.82908  0.53432  0.92181  1.0000
  O   O152      1.0  0.82268  0.78450  0.01237  1.0000
  O   O153      1.0  0.83444  0.53694  0.09799  1.0000
  O   O154      1.0  0.83843  0.78912  0.18515  1.0000
  O   O155      1.0  0.82935  0.53038  0.27178  1.0000
  O   O156      1.0  0.82682  0.84587  0.92756  1.0000
  O   O157      1.0  0.82739  0.58916  0.01208  1.0000
  O   O158      1.0  0.83463  0.83373  0.10013  1.0000
  O   O159      1.0  0.83143  0.58713  0.17835  1.0000
  O   O160      1.0  0.82753  0.83739  0.26796  1.0000
  O   O161      1.0  0.22695  0.93037  0.32189  1.0000
  H   H1        1.0  0.30464  0.92519  0.32714  1.0000
  H   H2        1.0  0.19189  0.99029  0.33807  1.0000
  O   O162      1.0  0.22855  0.43867  0.32035  1.0000
  H   H3        1.0  0.30226  0.40580  0.32611  1.0000
  H   H4        1.0  0.17984  0.43030  0.34129  1.0000
  O   O163      1.0  0.68562  0.92943  0.32385  1.0000
  H   H5        1.0  0.72907  0.87172  0.33269  1.0000
  H   H6        1.0  0.71894  0.99260  0.33488  1.0000
  O   O164      1.0  0.69165  0.42142  0.32341  1.0000
  H   H7        1.0  0.74220  0.36677  0.32943  1.0000
  H   H8        1.0  0.74752  0.53699  0.37098  1.0000
  O   O165      1.0  0.95573  0.91857  0.32488  1.0000
  H   H9        1.0  0.99408  0.97411  0.33606  1.0000
  H   H10       1.0  0.99022  0.85911  0.33888  1.0000
  O   O166      1.0  0.96792  0.45903  0.32420  1.0000
  H   H11       1.0  0.89852  0.49797  0.33280  1.0000
  H   H12       1.0  0.95015  0.39212  0.33643  1.0000
  O   O167      1.0  0.46324  0.89045  0.32310  1.0000
  H   H13       1.0  0.54032  0.90456  0.33309  1.0000
  H   H14       1.0  0.46225  0.81462  0.31859  1.0000
  O   O168      1.0  0.46023  0.41415  0.31732  1.0000
  H   H15       1.0  0.53376  0.40870  0.32821  1.0000
  H   H16       1.0  0.47702  0.25621  0.31322  1.0000
  O   O169      1.0  0.94193  0.94539  0.87458  1.0000
  H   H17       1.0  0.86213  0.94209  0.86880  1.0000
  H   H18       1.0  0.97226  0.89302  0.85814  1.0000
  O   O170      1.0  0.95337  0.43295  0.87112  1.0000
  H   H19       1.0  0.02703  0.39707  0.87096  1.0000
  H   H20       1.0  0.96994  0.49962  0.85727  1.0000
  O   O171      1.0  0.44941  0.94494  0.86999  1.0000
  H   H21       1.0  0.36974  0.96264  0.87015  1.0000
  H   H22       1.0  0.45400  0.87490  0.85633  1.0000
  O   O172      1.0  0.43978  0.42957  0.87188  1.0000
  H   H23       1.0  0.35663  0.42891  0.86614  1.0000
  H   H24       1.0  0.47210  0.48968  0.85763  1.0000
  O   O173      1.0  0.21795  0.97537  0.86896  1.0000
  H   H25       1.0  0.17901  0.03898  0.86878  1.0000
  H   H26       1.0  0.17731  0.93602  0.85285  1.0000
  O   O174      1.0  0.20080  0.40227  0.86727  1.0000
  H   H27       1.0  0.20223  0.46926  0.85190  1.0000
  H   H28       1.0  0.19325  0.34067  0.85259  1.0000
  O   O175      1.0  0.72184  0.97700  0.87217  1.0000
  H   H29       1.0  0.71016  0.10504  0.88190  1.0000
  H   H30       1.0  0.66321  0.94672  0.85759  1.0000
  O   O176      1.0  0.70869  0.46054  0.86857  1.0000
  H   H31       1.0  0.73305  0.39424  0.85657  1.0000
  H   H32       1.0  0.74989  0.52166  0.85650  1.0000
  O   O177      1.0  0.55572  0.76321  0.40609  1.0000
  H   H33       1.0  0.51500  0.81783  0.41811  1.0000
  H   H34       1.0  0.51347  0.71030  0.39201  1.0000
  O   O178      1.0  0.95972  0.15935  0.67759  1.0000
  H   H35       1.0  0.92411  0.19733  0.65842  1.0000
  H   H36       1.0  0.02224  0.20283  0.68348  1.0000
  O   O179      1.0  0.51562  0.39931  0.51808  1.0000
  H   H37       1.0  0.58394  0.41696  0.53538  1.0000
  H   H38       1.0  0.52892  0.32744  0.51434  1.0000
  O   O180      1.0  0.20736  0.48493  0.61601  1.0000
  H   H39       1.0  0.20978  0.40837  0.61453  1.0000
  H   H40       1.0  0.16695  0.50025  0.63873  1.0000
  O   O181      1.0  0.23434  0.64210  0.37539  1.0000
  H   H41       1.0  0.24448  0.65645  0.35029  1.0000
  H   H42       1.0  0.25073  0.71246  0.38512  1.0000
  O   O182      1.0  0.56226  0.20543  0.49845  1.0000
  H   H43       1.0  0.63964  0.18883  0.49055  1.0000
  H   H44       1.0  0.52027  0.21742  0.47774  1.0000
  O   O183      1.0  0.11064  0.78525  0.77543  1.0000
  H   H45       1.0  0.08806  0.73986  0.75681  1.0000
  H   H46       1.0  0.19211  0.79237  0.77468  1.0000
  O   O184      1.0  0.09130  0.81824  0.83981  1.0000
  H   H47       1.0  0.08047  0.78150  0.81571  1.0000
  H   H48       1.0  0.11265  0.76893  0.85623  1.0000
  O   O185      1.0  0.04165  0.11984  0.45196  1.0000
  H   H49       1.0  0.10471  0.10911  0.46916  1.0000
  H   H50       1.0  0.05510  0.05901  0.43548  1.0000
  O   O186      1.0  0.12658  0.08050  0.79981  1.0000
  H   H51       1.0  0.05135  0.09980  0.81329  1.0000
  H   H52       1.0  0.09162  0.05256  0.77810  1.0000
  O   O187      1.0  0.34630  0.06653  0.71375  1.0000
  H   H53       1.0  0.33769  0.03992  0.73637  1.0000
  H   H54       1.0  0.33343  0.14306  0.71447  1.0000
  O   O188      1.0  0.96540  0.85995  0.50663  1.0000
  H   H55       1.0  0.03715  0.86156  0.49449  1.0000
  H   H56       1.0  0.92754  0.92684  0.50012  1.0000
  O   O189      1.0  0.01463  0.72450  0.37652  1.0000
  H   H57       1.0  0.09381  0.70328  0.37201  1.0000
  H   H58       1.0  0.98782  0.69869  0.35389  1.0000
  O   O190      1.0  0.87832  0.31120  0.35495  1.0000
  H   H59       1.0  0.89365  0.30448  0.37869  1.0000
  H   H60       1.0  0.88240  0.25065  0.34166  1.0000
  O   O191      1.0  0.33696  0.80641  0.67726  1.0000
  H   H61       1.0  0.32203  0.78065  0.65297  1.0000
  H   H62       1.0  0.35260  0.88188  0.67234  1.0000
  O   O192      1.0  0.27806  0.78501  0.60576  1.0000
  H   H63       1.0  0.31031  0.84620  0.59307  1.0000
  H   H64       1.0  0.19692  0.79974  0.60012  1.0000
  O   O193      1.0  0.54785  0.56878  0.82351  1.0000
  H   H65       1.0  0.60540  0.55532  0.83937  1.0000
  H   H66       1.0  0.56350  0.53685  0.80224  1.0000
  O   O194      1.0  0.29880  0.99262  0.58552  1.0000
  H   H67       1.0  0.22813  0.03490  0.59029  1.0000
  H   H68       1.0  0.36024  0.02976  0.57261  1.0000
  O   O195      1.0  0.30721  0.56916  0.76621  1.0000
  H   H69       1.0  0.28498  0.57313  0.79105  1.0000
  H   H70       1.0  0.38644  0.54407  0.76443  1.0000
  O   O196      1.0  0.53558  0.26304  0.59103  1.0000
  H   H71       1.0  0.48775  0.29477  0.57340  1.0000
  H   H72       1.0  0.60674  0.30908  0.59151  1.0000
  O   O197      1.0  0.76164  0.68187  0.42764  1.0000
  H   H73       1.0  0.67685  0.69751  0.42334  1.0000
  H   H74       1.0  0.76790  0.67652  0.45294  1.0000
  O   O198      1.0  0.80645  0.37092  0.67388  1.0000
  H   H75       1.0  0.82649  0.33317  0.65254  1.0000
  H   H76       1.0  0.74750  0.33386  0.68505  1.0000
  O   O199      1.0  0.60634  0.36554  0.44292  1.0000
  H   H77       1.0  0.61445  0.39178  0.46558  1.0000
  H   H78       1.0  0.53424  0.40071  0.43346  1.0000
  O   O200      1.0  0.82101  0.97068  0.80943  1.0000
  H   H79       1.0  0.76260  0.01170  0.79666  1.0000
  H   H80       1.0  0.89105  0.96394  0.79328  1.0000
  O   O201      1.0  0.11440  0.07689  0.61161  1.0000
  H   H81       1.0  0.15077  0.05741  0.63306  1.0000
  H   H82       1.0  0.11652  0.15395  0.60852  1.0000
  O   O202      1.0  0.77180  0.93105  0.59229  1.0000
  H   H83       1.0  0.76152  0.89286  0.57167  1.0000
  H   H84       1.0  0.85172  0.92310  0.60240  1.0000
  O   O203      1.0  0.11496  0.04634  0.35748  1.0000
  H   H85       1.0  0.08579  0.00164  0.37534  1.0000
  H   H86       1.0  0.13509  0.12059  0.36639  1.0000
  O   O204      1.0  0.91207  0.65274  0.59198  1.0000
  H   H87       1.0  0.93674  0.66066  0.61612  1.0000
  H   H88       1.0  0.95373  0.70683  0.58113  1.0000
  O   O205      1.0  0.68454  0.79445  0.82902  1.0000
  H   H89       1.0  0.69419  0.76853  0.85317  1.0000
  H   H90       1.0  0.74630  0.84145  0.82046  1.0000
  O   O206      1.0  0.20652  0.26950  0.60799  1.0000
  H   H91       1.0  0.27116  0.24320  0.61924  1.0000
  H   H92       1.0  0.22745  0.27504  0.58282  1.0000
  O   O207      1.0  0.52887  0.43910  0.68476  1.0000
  H   H93       1.0  0.47632  0.47542  0.66691  1.0000
  H   H94       1.0  0.54789  0.36910  0.67277  1.0000
  O   O208      1.0  0.23733  0.10604  0.50477  1.0000
  H   H95       1.0  0.26681  0.05668  0.52039  1.0000
  H   H96       1.0  0.24001  0.17167  0.51689  1.0000
  O   O209      1.0  0.59668  0.87092  0.63051  1.0000
  H   H97       1.0  0.66108  0.89596  0.61612  1.0000
  H   H98       1.0  0.53752  0.92088  0.63697  1.0000
  O   O210      1.0  0.93045  0.15678  0.82661  1.0000
  H   H99       1.0  0.94825  0.16373  0.85182  1.0000
  H   H100      1.0  0.86797  0.10476  0.82707  1.0000
  O   O211      1.0  0.31465  0.03109  0.44336  1.0000
  H   H101      1.0  0.28396  0.05872  0.46577  1.0000
  H   H102      1.0  0.34240  0.09708  0.43211  1.0000
  O   O212      1.0  0.29741  0.52361  0.45300  1.0000
  H   H103      1.0  0.31312  0.47623  0.43299  1.0000
  H   H104      1.0  0.23294  0.57382  0.44647  1.0000
  O   O213      1.0  0.64296  0.25645  0.70583  1.0000
  H   H105      1.0  0.62431  0.27761  0.72957  1.0000
  H   H106      1.0  0.62492  0.18136  0.70652  1.0000
  O   O214      1.0  0.70548  0.11947  0.58092  1.0000
  H   H107      1.0  0.62506  0.13690  0.57999  1.0000
  H   H108      1.0  0.72063  0.04167  0.58030  1.0000
  O   O215      1.0  0.04404  0.82343  0.57347  1.0000
  H   H109      1.0  0.04591  0.88209  0.58945  1.0000
  H   H110      1.0  0.03053  0.85140  0.55048  1.0000
  O   O216      1.0  0.81973  0.60203  0.81163  1.0000
  H   H111      1.0  0.79248  0.57377  0.78825  1.0000
  H   H112      1.0  0.77446  0.66479  0.81623  1.0000
  O   O217      1.0  0.33977  0.81505  0.77318  1.0000
  H   H113      1.0  0.36529  0.79005  0.79442  1.0000
  H   H114      1.0  0.34488  0.89279  0.77502  1.0000
  O   O218      1.0  0.56525  0.66310  0.63111  1.0000
  H   H115      1.0  0.49200  0.63224  0.63551  1.0000
  H   H116      1.0  0.56414  0.73667  0.62754  1.0000
  O   O219      1.0  0.22179  0.57682  0.83449  1.0000
  H   H117      1.0  0.13915  0.59987  0.83305  1.0000
  H   H118      1.0  0.25875  0.62161  0.85099  1.0000
  O   O220      1.0  0.47347  0.03260  0.54600  1.0000
  H   H119      1.0  0.49723  0.95860  0.53834  1.0000
  H   H120      1.0  0.49523  0.08613  0.53109  1.0000
  O   O221      1.0  0.33486  0.27880  0.70618  1.0000
  H   H121      1.0  0.25669  0.29652  0.70093  1.0000
  H   H122      1.0  0.36533  0.32091  0.72338  1.0000
  O   O222      1.0  0.84793  0.24847  0.61653  1.0000
  H   H123      1.0  0.90440  0.26526  0.59766  1.0000
  H   H124      1.0  0.78964  0.19384  0.61035  1.0000
  O   O223      1.0  0.42997  0.29898  0.80803  1.0000
  H   H125      1.0  0.44359  0.34102  0.82946  1.0000
  H   H126      1.0  0.34196  0.29839  0.80506  1.0000
  O   O224      1.0  0.22689  0.30746  0.54139  1.0000
  H   H127      1.0  0.14768  0.32488  0.53552  1.0000
  H   H128      1.0  0.25825  0.37654  0.53429  1.0000
  O   O225      1.0  0.40642  0.98200  0.64866  1.0000
  H   H129      1.0  0.42644  0.04839  0.65775  1.0000
  H   H130      1.0  0.36415  0.99206  0.62702  1.0000
  O   O226      1.0  0.46897  0.08539  0.36916  1.0000
  H   H131      1.0  0.44168  0.09395  0.34578  1.0000
  H   H132      1.0  0.55854  0.08364  0.36490  1.0000
  O   O227      1.0  0.10653  0.51751  0.67160  1.0000
  H   H133      1.0  0.03065  0.54854  0.67080  1.0000
  H   H134      1.0  0.15247  0.56897  0.68480  1.0000
  O   O228      1.0  0.90818  0.86340  0.69357  1.0000
  H   H135      1.0  0.93772  0.91802  0.70997  1.0000
  H   H136      1.0  0.82777  0.88189  0.69384  1.0000
  O   O229      1.0  0.68461  0.07466  0.77462  1.0000
  H   H137      1.0  0.62694  0.09242  0.79316  1.0000
  H   H138      1.0  0.62890  0.05899  0.75299  1.0000
  O   O230      1.0  0.08481  0.61817  0.44107  1.0000
  H   H139      1.0  0.04165  0.58459  0.46134  1.0000
  H   H140      1.0  0.02731  0.64720  0.42654  1.0000
  O   O231      1.0  0.68046  0.77386  0.54461  1.0000
  H   H141      1.0  0.60903  0.80665  0.53381  1.0000
  H   H142      1.0  0.65885  0.71508  0.55972  1.0000
  O   O232      1.0  0.96339  0.31278  0.55989  1.0000
  H   H143      1.0  0.89556  0.30501  0.54667  1.0000
  H   H144      1.0  0.98508  0.38619  0.55995  1.0000
  O   O233      1.0  0.16388  0.78362  0.47706  1.0000
  H   H145      1.0  0.12601  0.72166  0.46473  1.0000
  H   H146      1.0  0.17993  0.75147  0.50008  1.0000
  O   O234      1.0  0.88639  0.17477  0.74802  1.0000
  H   H147      1.0  0.80900  0.15823  0.75510  1.0000
  H   H148      1.0  0.88124  0.21143  0.72615  1.0000
  O   O235      1.0  0.69942  0.01405  0.44659  1.0000
  H   H149      1.0  0.69859  0.07552  0.43105  1.0000
  H   H150      1.0  0.71298  0.95826  0.42994  1.0000
  O   O236      1.0  0.69450  0.40308  0.58112  1.0000
  H   H151      1.0  0.70238  0.48019  0.58524  1.0000
  H   H152      1.0  0.76190  0.36645  0.59006  1.0000
  O   O237      1.0  0.42146  0.42969  0.40804  1.0000
  H   H153      1.0  0.40607  0.36078  0.40094  1.0000
  H   H154      1.0  0.44719  0.47257  0.38695  1.0000
  O   O238      1.0  0.62532  0.34308  0.77081  1.0000
  H   H155      1.0  0.67880  0.31989  0.78872  1.0000
  H   H156      1.0  0.54930  0.33735  0.78169  1.0000
  O   O239      1.0  0.94620  0.66081  0.66357  1.0000
  H   H157      1.0  0.93374  0.73406  0.66800  1.0000
  H   H158      1.0  0.87048  0.62941  0.67125  1.0000
  O   O240      1.0  0.03963  0.51011  0.56698  1.0000
  H   H159      1.0  0.10473  0.50927  0.58174  1.0000
  H   H160      1.0  0.98912  0.54850  0.58187  1.0000
  O   O241      1.0  0.87637  0.04590  0.48553  1.0000
  H   H161      1.0  0.80396  0.03495  0.47392  1.0000
  H   H162      1.0  0.93163  0.08148  0.47082  1.0000
  O   O242      1.0  0.18288  0.23685  0.37146  1.0000
  H   H163      1.0  0.14824  0.29749  0.38432  1.0000
  H   H164      1.0  0.19463  0.24412  0.34544  1.0000
  O   O243      1.0  0.52693  0.12374  0.81919  1.0000
  H   H165      1.0  0.48650  0.19175  0.81742  1.0000
  H   H166      1.0  0.51080  0.09486  0.84257  1.0000
  O   O244      1.0  0.23527  0.84379  0.41058  1.0000
  H   H167      1.0  0.21143  0.82396  0.43497  1.0000
  H   H168      1.0  0.29367  0.89511  0.41294  1.0000
  O   O245      1.0  0.67081  0.86647  0.69295  1.0000
  H   H169      1.0  0.65804  0.85528  0.66672  1.0000
  H   H170      1.0  0.63666  0.81079  0.70654  1.0000
  O   O246      1.0  0.01237  0.00078  0.74030  1.0000
  H   H171      1.0  0.95987  0.06147  0.73670  1.0000
  H   H172      1.0  0.06140  0.99955  0.71895  1.0000
  O   O247      1.0  0.09556  0.46631  0.38146  1.0000
  H   H173      1.0  0.04786  0.48037  0.36187  1.0000
  H   H174      1.0  0.14245  0.52551  0.38573  1.0000
  O   O248      1.0  0.95193  0.94046  0.63315  1.0000
  H   H175      1.0  0.94543  0.90538  0.65466  1.0000
  H   H176      1.0  0.97403  0.01405  0.63676  1.0000
  O   O249      1.0  0.68388  0.11373  0.35705  1.0000
  H   H177      1.0  0.68855  0.14465  0.33351  1.0000
  H   H178      1.0  0.69485  0.15802  0.37645  1.0000
  O   O250      1.0  0.46232  0.78319  0.83284  1.0000
  H   H179      1.0  0.46759  0.73587  0.85213  1.0000
  H   H180      1.0  0.54256  0.78447  0.82316  1.0000
  O   O251      1.0  0.78747  0.21409  0.52126  1.0000
  H   H181      1.0  0.83064  0.15777  0.51068  1.0000
  H   H182      1.0  0.76317  0.18092  0.54313  1.0000
  O   O252      1.0  0.79728  0.48590  0.75449  1.0000
  H   H183      1.0  0.72213  0.45389  0.75419  1.0000
  H   H184      1.0  0.80348  0.51572  0.73167  1.0000
  O   O253      1.0  0.56851  0.04556  0.71211  1.0000
  H   H185      1.0  0.59386  0.97208  0.70558  1.0000
  H   H186      1.0  0.48601  0.05410  0.70984  1.0000
  O   O254      1.0  0.10499  0.31887  0.70278  1.0000
  H   H187      1.0  0.08350  0.38232  0.68894  1.0000
  H   H188      1.0  0.08757  0.34007  0.72757  1.0000
  O   O255      1.0  0.38321  0.21296  0.41026  1.0000
  H   H189      1.0  0.41857  0.16775  0.39129  1.0000
  H   H190      1.0  0.30679  0.21742  0.40393  1.0000
  O   O256      1.0  0.19005  0.64910  0.71671  1.0000
  H   H191      1.0  0.21733  0.72056  0.71073  1.0000
  H   H192      1.0  0.22672  0.62497  0.73807  1.0000
  O   O257      1.0  0.81816  0.57916  0.36693  1.0000
  H   H193      1.0  0.73009  0.65977  0.32406  1.0000
  H   H194      1.0  0.81449  0.62606  0.38752  1.0000
  O   O258      1.0  0.33670  0.01942  0.78312  1.0000
  H   H195      1.0  0.39099  0.05664  0.79714  1.0000
  H   H196      1.0  0.26365  0.02785  0.79449  1.0000
  O   O259      1.0  0.49500  0.89897  0.44914  1.0000
  H   H197      1.0  0.56472  0.94310  0.44833  1.0000
  H   H198      1.0  0.43537  0.95163  0.44217  1.0000
  O   O260      1.0  0.21648  0.27898  0.79789  1.0000
  H   H199      1.0  0.15382  0.32128  0.78913  1.0000
  H   H200      1.0  0.18440  0.20514  0.79439  1.0000
  O   O261      1.0  0.76207  0.87487  0.39251  1.0000
  H   H201      1.0  0.68824  0.84335  0.39398  1.0000
  H   H202      1.0  0.80998  0.82329  0.40604  1.0000
  O   O262      1.0  0.15764  0.96656  0.68037  1.0000
  H   H203      1.0  0.19188  0.89759  0.67547  1.0000
  H   H204      1.0  0.22297  0.01067  0.68958  1.0000
  O   O263      1.0  0.47655  0.59277  0.36867  1.0000
  H   H205      1.0  0.40037  0.59906  0.37872  1.0000
  H   H206      1.0  0.46678  0.61432  0.34432  1.0000
  O   O264      1.0  0.01743  0.60212  0.83816  1.0000
  H   H207      1.0  0.99942  0.63729  0.86086  1.0000
  H   H208      1.0  0.95991  0.63056  0.82229  1.0000
  O   O265      1.0  0.92894  0.28554  0.42790  1.0000
  H   H209      1.0  0.89317  0.33032  0.44640  1.0000
  H   H210      1.0  0.97976  0.23787  0.43965  1.0000
  O   O266      1.0  0.49764  0.72993  0.71922  1.0000
  H   H211      1.0  0.46222  0.75961  0.73996  1.0000
  H   H212      1.0  0.43943  0.75814  0.70090  1.0000
  O   O267      1.0  0.83886  0.69460  0.49890  1.0000
  H   H213      1.0  0.88637  0.75641  0.50022  1.0000
  H   H214      1.0  0.77760  0.70829  0.51605  1.0000
  O   O268      1.0  0.70991  0.19782  0.41766  1.0000
  H   H215      1.0  0.78988  0.21467  0.42165  1.0000
  H   H216      1.0  0.66907  0.26407  0.42597  1.0000
  O   O269      1.0  0.77148  0.55613  0.68912  1.0000
  H   H217      1.0  0.69406  0.57385  0.68040  1.0000
  H   H218      1.0  0.79532  0.49079  0.67637  1.0000
  O   O270      1.0  0.03492  0.34076  0.76769  1.0000
  H   H219      1.0  0.98229  0.27884  0.76670  1.0000
  H   H220      1.0  0.97736  0.39584  0.77173  1.0000
  O   O271      1.0  0.37122  0.57774  0.65516  1.0000
  H   H221      1.0  0.31331  0.54625  0.64004  1.0000
  H   H222      1.0  0.32586  0.60177  0.67537  1.0000
  O   O272      1.0  0.75447  0.29331  0.83334  1.0000
  H   H223      1.0  0.73780  0.23360  0.84977  1.0000
  H   H224      1.0  0.83455  0.28487  0.82792  1.0000
  O   O273      1.0  0.51583  0.53555  0.75134  1.0000
  H   H225      1.0  0.51179  0.50211  0.72778  1.0000
  H   H226      1.0  0.51244  0.60843  0.74382  1.0000
  O   O274      1.0  0.99608  0.51498  0.50437  1.0000
  H   H227      1.0  0.94709  0.57647  0.50060  1.0000
  H   H228      1.0  0.04153  0.52440  0.52846  1.0000
  O   O275      1.0  0.82439  0.38718  0.48211  1.0000
  H   H229      1.0  0.79961  0.33706  0.50030  1.0000
  H   H230      1.0  0.89886  0.42036  0.49025  1.0000
  O   O276      1.0  0.49879  0.85156  0.51515  1.0000
  H   H231      1.0  0.45022  0.79448  0.52074  1.0000
  H   H232      1.0  0.48693  0.86503  0.49028  1.0000
  O   O277      1.0  0.01905  0.94177  0.41123  1.0000
  H   H233      1.0  0.95311  0.91895  0.40112  1.0000
  H   H234      1.0  0.08140  0.89005  0.40690  1.0000
  O   O278      1.0  0.31522  0.48331  0.52240  1.0000
  H   H235      1.0  0.39646  0.46177  0.52573  1.0000
  H   H236      1.0  0.30561  0.49369  0.49503  1.0000
  O   O279      1.0  0.29942  0.69468  0.52857  1.0000
  H   H237      1.0  0.31052  0.61891  0.52815  1.0000
  H   H238      1.0  0.29077  0.70105  0.55363  1.0000
  O   O280      1.0  0.69811  0.60536  0.58110  1.0000
  H   H239      1.0  0.77179  0.63823  0.58356  1.0000
  H   H240      1.0  0.65086  0.62727  0.60054  1.0000
  O   O281      1.0  0.42351  0.19425  0.64667  1.0000
  H   H241      1.0  0.47719  0.22811  0.63214  1.0000
  H   H242      1.0  0.42463  0.23580  0.66787  1.0000
