data_image0
_cell_length_a       11.836
_cell_length_b       12.994
_cell_length_c       38.53
_cell_angle_alpha    90
_cell_angle_beta     90
_cell_angle_gamma    90

_symmetry_space_group_name_H-M    "P 1"
_symmetry_int_tables_number       1

loop_
  _symmetry_equiv_pos_as_xyz
  'x, y, z'

loop_
  _atom_site_label
  _atom_site_occupancy
  _atom_site_fract_x
  _atom_site_fract_y
  _atom_site_fract_z
  _atom_site_thermal_displace_type
  _atom_site_B_iso_or_equiv
  _atom_site_type_symbol
  Ti1      1.0000 0.20712  0.43625  0.05845  Biso   1.000  Ti
  Ti2      1.0000 0.20713  0.19644  0.14171  Biso   1.000  Ti
  Ti3      1.0000 0.19668  0.42870  0.22585  Biso   1.000  Ti
  Ti4      1.0000 0.19659  0.19413  0.31640  Biso   1.000  Ti
  Ti5      1.0000 0.20109  0.43928  0.39492  Biso   1.000  Ti
  Ti6      1.0000 0.08202  0.18868  0.05422  Biso   1.000  Ti
  Ti7      1.0000 0.08658  0.43422  0.14309  Biso   1.000  Ti
  Ti8      1.0000 0.07855  0.18518  0.23187  Biso   1.000  Ti
  Ti9      1.0000 0.07675  0.44240  0.31032  Biso   1.000  Ti
  Ti10     1.0000 0.08451  0.19302  0.40346  Biso   1.000  Ti
  O1       1.0000 0.20164  0.18146  0.02322  Biso   1.000  O
  O2       1.0000 0.20217  0.44222  0.10579  Biso   1.000  O
  O3       1.0000 0.20265  0.19397  0.19522  Biso   1.000  O
  O4       1.0000 0.20901  0.43792  0.27956  Biso   1.000  O
  O5       1.0000 0.21936  0.19620  0.36679  Biso   1.000  O
  O6       1.0000 0.20521  0.18181  0.09101  Biso   1.000  O
  O7       1.0000 0.20304  0.42891  0.17347  Biso   1.000  O
  O8       1.0000 0.20040  0.18527  0.26091  Biso   1.000  O
  O9       1.0000 0.21104  0.42953  0.34718  Biso   1.000  O
  O10      1.0000 0.21024  0.18704  0.43456  Biso   1.000  O
  O11      1.0000 0.07661  0.03631  0.05614  Biso   1.000  O
  O12      1.0000 0.08095  0.27989  0.14017  Biso   1.000  O
  O13      1.0000 0.08669  0.03558  0.23058  Biso   1.000  O
  O14      1.0000 0.07522  0.28714  0.31731  Biso   1.000  O
  O15      1.0000 0.07552  0.03081  0.40482  Biso   1.000  O
  O16      1.0000 0.07225  0.34258  0.05371  Biso   1.000  O
  O17      1.0000 0.07188  0.08629  0.14308  Biso   1.000  O
  O18      1.0000 0.08115  0.34041  0.22713  Biso   1.000  O
  O19      1.0000 0.08708  0.09512  0.31570  Biso   1.000  O
  O20      1.0000 0.08193  0.34580  0.40162  Biso   1.000  O
  Ti11     1.0000 0.45714  0.43163  0.05722  Biso   1.000  Ti
  Ti12     1.0000 0.46359  0.18367  0.13748  Biso   1.000  Ti
  Ti13     1.0000 0.45430  0.43157  0.22820  Biso   1.000  Ti
  Ti14     1.0000 0.44725  0.17884  0.31481  Biso   1.000  Ti
  Ti15     1.0000 0.45124  0.43226  0.39885  Biso   1.000  Ti
  Ti16     1.0000 0.32243  0.18151  0.05267  Biso   1.000  Ti
  Ti17     1.0000 0.33910  0.44941  0.14073  Biso   1.000  Ti
  Ti18     1.0000 0.32968  0.18374  0.22606  Biso   1.000  Ti
  Ti19     1.0000 0.33696  0.43693  0.31236  Biso   1.000  Ti
  Ti20     1.0000 0.32535  0.17699  0.40091  Biso   1.000  Ti
  O21      1.0000 0.45369  0.18583  0.02534  Biso   1.000  O
  O22      1.0000 0.46562  0.43139  0.10576  Biso   1.000  O
  O23      1.0000 0.45879  0.18205  0.19325  Biso   1.000  O
  O24      1.0000 0.45170  0.43076  0.27636  Biso   1.000  O
  O25      1.0000 0.45297  0.17421  0.36234  Biso   1.000  O
  O26      1.0000 0.45277  0.19107  0.09002  Biso   1.000  O
  O27      1.0000 0.45648  0.44355  0.17279  Biso   1.000  O
  O28      1.0000 0.45182  0.17351  0.25920  Biso   1.000  O
  O29      1.0000 0.45253  0.43362  0.34682  Biso   1.000  O
  O30      1.0000 0.46266  0.18683  0.43170  Biso   1.000  O
  O31      1.0000 0.32117  0.03257  0.05409  Biso   1.000  O
  O32      1.0000 0.33386  0.28693  0.14210  Biso   1.000  O
  O33      1.0000 0.32057  0.03014  0.23018  Biso   1.000  O
  O34      1.0000 0.33472  0.28292  0.31405  Biso   1.000  O
  O35      1.0000 0.33097  0.03531  0.39888  Biso   1.000  O
  O36      1.0000 0.32760  0.34060  0.05601  Biso   1.000  O
  O37      1.0000 0.33042  0.08644  0.14302  Biso   1.000  O
  O38      1.0000 0.32930  0.33850  0.22525  Biso   1.000  O
  O39      1.0000 0.32724  0.09226  0.31441  Biso   1.000  O
  O40      1.0000 0.33533  0.33495  0.39833  Biso   1.000  O
  Ti21     1.0000 0.71408  0.44011  0.05447  Biso   1.000  Ti
  Ti22     1.0000 0.70580  0.18856  0.14122  Biso   1.000  Ti
  Ti23     1.0000 0.70980  0.44177  0.22796  Biso   1.000  Ti
  Ti24     1.0000 0.69740  0.19700  0.31117  Biso   1.000  Ti
  Ti25     1.0000 0.70234  0.43381  0.40599  Biso   1.000  Ti
  Ti26     1.0000 0.56830  0.18733  0.05547  Biso   1.000  Ti
  Ti27     1.0000 0.58068  0.43858  0.14078  Biso   1.000  Ti
  Ti28     1.0000 0.57242  0.19357  0.22846  Biso   1.000  Ti
  Ti29     1.0000 0.58022  0.43629  0.31623  Biso   1.000  Ti
  Ti30     1.0000 0.58431  0.18910  0.39188  Biso   1.000  Ti
  O41      1.0000 0.71070  0.18289  0.01754  Biso   1.000  O
  O42      1.0000 0.70734  0.44536  0.10725  Biso   1.000  O
  O43      1.0000 0.70354  0.17958  0.19560  Biso   1.000  O
  O44      1.0000 0.70697  0.44161  0.27745  Biso   1.000  O
  O45      1.0000 0.70880  0.17756  0.36206  Biso   1.000  O
  O46      1.0000 0.69702  0.18242  0.09091  Biso   1.000  O
  O47      1.0000 0.70828  0.44887  0.17484  Biso   1.000  O
  O48      1.0000 0.69923  0.19478  0.26191  Biso   1.000  O
  O49      1.0000 0.70082  0.44226  0.34512  Biso   1.000  O
  O50      1.0000 0.69950  0.18057  0.42465  Biso   1.000  O
  O51      1.0000 0.57854  0.03341  0.05421  Biso   1.000  O
  O52      1.0000 0.58294  0.28643  0.14430  Biso   1.000  O
  O53      1.0000 0.57846  0.03085  0.22695  Biso   1.000  O
  O54      1.0000 0.57843  0.28883  0.31567  Biso   1.000  O
  O55      1.0000 0.58567  0.02282  0.40195  Biso   1.000  O
  O56      1.0000 0.59816  0.33413  0.05236  Biso   1.000  O
  O57      1.0000 0.57739  0.08572  0.14170  Biso   1.000  O
  O58      1.0000 0.58651  0.33740  0.22455  Biso   1.000  O
  O59      1.0000 0.58358  0.08554  0.31137  Biso   1.000  O
  O60      1.0000 0.57462  0.33411  0.39287  Biso   1.000  O
  Ti31     1.0000 0.95798  0.44511  0.05803  Biso   1.000  Ti
  Ti32     1.0000 0.94964  0.19084  0.14117  Biso   1.000  Ti
  Ti33     1.0000 0.94904  0.43313  0.22449  Biso   1.000  Ti
  Ti34     1.0000 0.94624  0.18758  0.31612  Biso   1.000  Ti
  Ti35     1.0000 0.95162  0.44046  0.39474  Biso   1.000  Ti
  Ti36     1.0000 0.82862  0.19145  0.05409  Biso   1.000  Ti
  Ti37     1.0000 0.82361  0.44080  0.14114  Biso   1.000  Ti
  Ti38     1.0000 0.83196  0.18272  0.22275  Biso   1.000  Ti
  Ti39     1.0000 0.82613  0.43721  0.31251  Biso   1.000  Ti
  Ti40     1.0000 0.83466  0.17708  0.40112  Biso   1.000  Ti
  O61      1.0000 0.94747  0.18994  0.02393  Biso   1.000  O
  O62      1.0000 0.96181  0.44264  0.10653  Biso   1.000  O
  O63      1.0000 0.96509  0.18804  0.19345  Biso   1.000  O
  O64      1.0000 0.96014  0.44076  0.28002  Biso   1.000  O
  O65      1.0000 0.95292  0.18659  0.36567  Biso   1.000  O
  O66      1.0000 0.94886  0.19545  0.09008  Biso   1.000  O
  O67      1.0000 0.95303  0.43219  0.17354  Biso   1.000  O
  O68      1.0000 0.95067  0.18892  0.26274  Biso   1.000  O
  O69      1.0000 0.95145  0.44211  0.34686  Biso   1.000  O
  O70      1.0000 0.95120  0.19335  0.43227  Biso   1.000  O
  O71      1.0000 0.82260  0.03659  0.06178  Biso   1.000  O
  O72      1.0000 0.82551  0.28708  0.14564  Biso   1.000  O
  O73      1.0000 0.83379  0.03507  0.22542  Biso   1.000  O
  O74      1.0000 0.82857  0.28545  0.31164  Biso   1.000  O
  O75      1.0000 0.83678  0.03009  0.40104  Biso   1.000  O
  O76      1.0000 0.82829  0.33946  0.05842  Biso   1.000  O
  O77      1.0000 0.82913  0.08868  0.14307  Biso   1.000  O
  O78      1.0000 0.82234  0.33744  0.22546  Biso   1.000  O
  O79      1.0000 0.82785  0.09021  0.31149  Biso   1.000  O
  O80      1.0000 0.83273  0.34555  0.39777  Biso   1.000  O
  Ti41     1.0000 0.20573  0.93388  0.06188  Biso   1.000  Ti
  Ti42     1.0000 0.19481  0.69801  0.14121  Biso   1.000  Ti
  Ti43     1.0000 0.20646  0.92829  0.22379  Biso   1.000  Ti
  Ti44     1.0000 0.20559  0.68702  0.31943  Biso   1.000  Ti
  Ti45     1.0000 0.19830  0.92600  0.39880  Biso   1.000  Ti
  Ti46     1.0000 0.07368  0.68324  0.05686  Biso   1.000  Ti
  Ti47     1.0000 0.08546  0.95144  0.14329  Biso   1.000  Ti
  Ti48     1.0000 0.08036  0.68168  0.23077  Biso   1.000  Ti
  Ti49     1.0000 0.07888  0.94687  0.31137  Biso   1.000  Ti
  Ti50     1.0000 0.08369  0.68777  0.40749  Biso   1.000  Ti
  O81      1.0000 0.20258  0.69767  0.02646  Biso   1.000  O
  O82      1.0000 0.20062  0.93885  0.11056  Biso   1.000  O
  O83      1.0000 0.20033  0.67980  0.19211  Biso   1.000  O
  O84      1.0000 0.20482  0.93369  0.28109  Biso   1.000  O
  O85      1.0000 0.19532  0.69350  0.36863  Biso   1.000  O
  O86      1.0000 0.22124  0.68473  0.09131  Biso   1.000  O
  O87      1.0000 0.19932  0.93834  0.17612  Biso   1.000  O
  O88      1.0000 0.21021  0.68103  0.25974  Biso   1.000  O
  O89      1.0000 0.20711  0.94265  0.34593  Biso   1.000  O
  O90      1.0000 0.21118  0.68552  0.43496  Biso   1.000  O
  O91      1.0000 0.08252  0.53856  0.05147  Biso   1.000  O
  O92      1.0000 0.07815  0.78642  0.14211  Biso   1.000  O
  O93      1.0000 0.08229  0.53306  0.22630  Biso   1.000  O
  O94      1.0000 0.07478  0.78995  0.31543  Biso   1.000  O
  O95      1.0000 0.08096  0.53285  0.40169  Biso   1.000  O
  O96      1.0000 0.08563  0.84591  0.05824  Biso   1.000  O
  O97      1.0000 0.07630  0.58866  0.14160  Biso   1.000  O
  O98      1.0000 0.07872  0.83711  0.22872  Biso   1.000  O
  O99      1.0000 0.09170  0.58954  0.31293  Biso   1.000  O
  O100     1.0000 0.08646  0.83811  0.40079  Biso   1.000  O
  Ti51     1.0000 0.45558  0.93732  0.05674  Biso   1.000  Ti
  Ti52     1.0000 0.45752  0.68551  0.14251  Biso   1.000  Ti
  Ti53     1.0000 0.45454  0.94197  0.22756  Biso   1.000  Ti
  Ti54     1.0000 0.45456  0.69262  0.30744  Biso   1.000  Ti
  Ti55     1.0000 0.45512  0.93294  0.39273  Biso   1.000  Ti
  Ti56     1.0000 0.32507  0.69210  0.05205  Biso   1.000  Ti
  Ti57     1.0000 0.33564  0.94530  0.14320  Biso   1.000  Ti
  Ti58     1.0000 0.32487  0.68050  0.22413  Biso   1.000  Ti
  Ti59     1.0000 0.31666  0.93872  0.31419  Biso   1.000  Ti
  Ti60     1.0000 0.33717  0.68289  0.40411  Biso   1.000  Ti
  O101     1.0000 0.44740  0.68098  0.02260  Biso   1.000  O
  O102     1.0000 0.44134  0.93043  0.10729  Biso   1.000  O
  O103     1.0000 0.45484  0.68815  0.19284  Biso   1.000  O
  O104     1.0000 0.45073  0.93496  0.27963  Biso   1.000  O
  O105     1.0000 0.45210  0.68459  0.36802  Biso   1.000  O
  O106     1.0000 0.46492  0.66838  0.08851  Biso   1.000  O
  O107     1.0000 0.45461  0.93598  0.17626  Biso   1.000  O
  O108     1.0000 0.45273  0.68009  0.26034  Biso   1.000  O
  O109     1.0000 0.46587  0.93644  0.34411  Biso   1.000  O
  O110     1.0000 0.45972  0.69594  0.43351  Biso   1.000  O
  O111     1.0000 0.33292  0.53009  0.04802  Biso   1.000  O
  O112     1.0000 0.33164  0.78323  0.14134  Biso   1.000  O
  O113     1.0000 0.32861  0.52795  0.22481  Biso   1.000  O
  O114     1.0000 0.33409  0.78930  0.31192  Biso   1.000  O
  O115     1.0000 0.32813  0.53523  0.39728  Biso   1.000  O
  O116     1.0000 0.33433  0.84332  0.04752  Biso   1.000  O
  O117     1.0000 0.32699  0.58427  0.14223  Biso   1.000  O
  O118     1.0000 0.33576  0.83492  0.22458  Biso   1.000  O
  O119     1.0000 0.32404  0.58866  0.31420  Biso   1.000  O
  O120     1.0000 0.33030  0.84353  0.39627  Biso   1.000  O
  Ti61     1.0000 0.70796  0.93588  0.05358  Biso   1.000  Ti
  Ti62     1.0000 0.70353  0.68105  0.13685  Biso   1.000  Ti
  Ti63     1.0000 0.70650  0.94278  0.22714  Biso   1.000  Ti
  Ti64     1.0000 0.70207  0.68606  0.31504  Biso   1.000  Ti
  Ti65     1.0000 0.69904  0.93092  0.39407  Biso   1.000  Ti
  Ti66     1.0000 0.56805  0.67887  0.05430  Biso   1.000  Ti
  Ti67     1.0000 0.58091  0.92675  0.14184  Biso   1.000  Ti
  Ti68     1.0000 0.58696  0.68878  0.22742  Biso   1.000  Ti
  Ti69     1.0000 0.57653  0.93957  0.30671  Biso   1.000  Ti
  Ti70     1.0000 0.57848  0.68212  0.39666  Biso   1.000  Ti
  O121     1.0000 0.70987  0.68742  0.02012  Biso   1.000  O
  O122     1.0000 0.69289  0.93544  0.10846  Biso   1.000  O
  O123     1.0000 0.70893  0.68264  0.19183  Biso   1.000  O
  O124     1.0000 0.71143  0.94605  0.27832  Biso   1.000  O
  O125     1.0000 0.70803  0.68402  0.36399  Biso   1.000  O
  O126     1.0000 0.70990  0.67519  0.08797  Biso   1.000  O
  O127     1.0000 0.70157  0.93460  0.17455  Biso   1.000  O
  O128     1.0000 0.70255  0.69084  0.26032  Biso   1.000  O
  O129     1.0000 0.70796  0.94399  0.34585  Biso   1.000  O
  O130     1.0000 0.71050  0.70285  0.43351  Biso   1.000  O
  O131     1.0000 0.57895  0.52946  0.05345  Biso   1.000  O
  O132     1.0000 0.57850  0.77904  0.14165  Biso   1.000  O
  O133     1.0000 0.57663  0.52939  0.22856  Biso   1.000  O
  O134     1.0000 0.57508  0.78465  0.30810  Biso   1.000  O
  O135     1.0000 0.59048  0.53239  0.40297  Biso   1.000  O
  O136     1.0000 0.56642  0.83930  0.05340  Biso   1.000  O
  O137     1.0000 0.57808  0.58662  0.14377  Biso   1.000  O
  O138     1.0000 0.57846  0.84104  0.22879  Biso   1.000  O
  O139     1.0000 0.57924  0.59194  0.31425  Biso   1.000  O
  O140     1.0000 0.58022  0.83195  0.39781  Biso   1.000  O
  Ti71     1.0000 0.95164  0.94524  0.06082  Biso   1.000  Ti
  Ti72     1.0000 0.95788  0.68858  0.14148  Biso   1.000  Ti
  Ti73     1.0000 0.96278  0.93837  0.22518  Biso   1.000  Ti
  Ti74     1.0000 0.95934  0.69325  0.31630  Biso   1.000  Ti
  Ti75     1.0000 0.95169  0.93539  0.39539  Biso   1.000  Ti
  Ti76     1.0000 0.82386  0.69525  0.04984  Biso   1.000  Ti
  Ti77     1.0000 0.82630  0.93256  0.14278  Biso   1.000  Ti
  Ti78     1.0000 0.82856  0.69266  0.22245  Biso   1.000  Ti
  Ti79     1.0000 0.82251  0.94568  0.31447  Biso   1.000  Ti
  Ti80     1.0000 0.84282  0.68735  0.39905  Biso   1.000  Ti
  O141     1.0000 0.95421  0.68061  0.02300  Biso   1.000  O
  O142     1.0000 0.95282  0.93599  0.10998  Biso   1.000  O
  O143     1.0000 0.95477  0.69668  0.19424  Biso   1.000  O
  O144     1.0000 0.96214  0.94971  0.28071  Biso   1.000  O
  O145     1.0000 0.96666  0.67593  0.36619  Biso   1.000  O
  O146     1.0000 0.95495  0.69208  0.09041  Biso   1.000  O
  O147     1.0000 0.95108  0.94665  0.17754  Biso   1.000  O
  O148     1.0000 0.95916  0.69187  0.25977  Biso   1.000  O
  O149     1.0000 0.95927  0.93705  0.34744  Biso   1.000  O
  O150     1.0000 0.95479  0.69222  0.43410  Biso   1.000  O
  O151     1.0000 0.82908  0.53432  0.05158  Biso   1.000  O
  O152     1.0000 0.82268  0.78450  0.14214  Biso   1.000  O
  O153     1.0000 0.83444  0.53694  0.22776  Biso   1.000  O
  O154     1.0000 0.83843  0.78912  0.31492  Biso   1.000  O
  O155     1.0000 0.82935  0.53038  0.40155  Biso   1.000  O
  O156     1.0000 0.82682  0.84587  0.05733  Biso   1.000  O
  O157     1.0000 0.82739  0.58916  0.14185  Biso   1.000  O
  O158     1.0000 0.83463  0.83373  0.22990  Biso   1.000  O
  O159     1.0000 0.83143  0.58713  0.30812  Biso   1.000  O
  O160     1.0000 0.82753  0.83739  0.39773  Biso   1.000  O
  O161     1.0000 0.22695  0.93037  0.45166  Biso   1.000  O
  H1       1.0000 0.30464  0.92519  0.45691  Biso   1.000  H
  H2       1.0000 0.19189  0.99029  0.46784  Biso   1.000  H
  O162     1.0000 0.22855  0.43867  0.45012  Biso   1.000  O
  H3       1.0000 0.30226  0.40580  0.45588  Biso   1.000  H
  H4       1.0000 0.17984  0.43030  0.47106  Biso   1.000  H
  O163     1.0000 0.68562  0.92943  0.45362  Biso   1.000  O
  H5       1.0000 0.72907  0.87172  0.46246  Biso   1.000  H
  H6       1.0000 0.71894  0.99260  0.46465  Biso   1.000  H
  O164     1.0000 0.69165  0.42142  0.45318  Biso   1.000  O
  H7       1.0000 0.74220  0.36677  0.45920  Biso   1.000  H
  H8       1.0000 0.74752  0.53699  0.50075  Biso   1.000  H
  O165     1.0000 0.95573  0.91857  0.45465  Biso   1.000  O
  H9       1.0000 0.99408  0.97411  0.46583  Biso   1.000  H
  H10      1.0000 0.99022  0.85911  0.46865  Biso   1.000  H
  O166     1.0000 0.96792  0.45903  0.45397  Biso   1.000  O
  H11      1.0000 0.89852  0.49797  0.46257  Biso   1.000  H
  H12      1.0000 0.95015  0.39212  0.46620  Biso   1.000  H
  O167     1.0000 0.46324  0.89045  0.45287  Biso   1.000  O
  H13      1.0000 0.54032  0.90456  0.46286  Biso   1.000  H
  H14      1.0000 0.46225  0.81462  0.44836  Biso   1.000  H
  O168     1.0000 0.46023  0.41415  0.44709  Biso   1.000  O
  H15      1.0000 0.53376  0.40870  0.45798  Biso   1.000  H
  H16      1.0000 0.47702  0.25621  0.44299  Biso   1.000  H
  O169     1.0000 0.94193  0.94539  0.00435  Biso   1.000  O
  H17      1.0000 0.86213  0.94209  0.99857  Biso   1.000  H
  H18      1.0000 0.97226  0.89302  0.98791  Biso   1.000  H
  O170     1.0000 0.95337  0.43295  0.00089  Biso   1.000  O
  H19      1.0000 0.02703  0.39707  0.00073  Biso   1.000  H
  H20      1.0000 0.96994  0.49962  0.98704  Biso   1.000  H
  O171     1.0000 0.44941  0.94494  0.99976  Biso   1.000  O
  H21      1.0000 0.36974  0.96264  0.99992  Biso   1.000  H
  H22      1.0000 0.45400  0.87490  0.98610  Biso   1.000  H
  O172     1.0000 0.43978  0.42957  0.00165  Biso   1.000  O
  H23      1.0000 0.35663  0.42891  0.99591  Biso   1.000  H
  H24      1.0000 0.47210  0.48968  0.98740  Biso   1.000  H
  O173     1.0000 0.21795  0.97537  0.99873  Biso   1.000  O
  H25      1.0000 0.17901  0.03898  0.99855  Biso   1.000  H
  H26      1.0000 0.17731  0.93602  0.98262  Biso   1.000  H
  O174     1.0000 0.20080  0.40227  0.99704  Biso   1.000  O
  H27      1.0000 0.20223  0.46926  0.98167  Biso   1.000  H
  H28      1.0000 0.19325  0.34067  0.98236  Biso   1.000  H
  O175     1.0000 0.72184  0.97700  0.00194  Biso   1.000  O
  H29      1.0000 0.71016  0.10504  0.01167  Biso   1.000  H
  H30      1.0000 0.66321  0.94672  0.98736  Biso   1.000  H
  O176     1.0000 0.70869  0.46054  0.99834  Biso   1.000  O
  H31      1.0000 0.73305  0.39424  0.98634  Biso   1.000  H
  H32      1.0000 0.74989  0.52166  0.98627  Biso   1.000  H
  O177     1.0000 0.55572  0.76321  0.53586  Biso   1.000  O
  H33      1.0000 0.51500  0.81783  0.54788  Biso   1.000  H
  H34      1.0000 0.51347  0.71030  0.52178  Biso   1.000  H
  O178     1.0000 0.95972  0.15935  0.80736  Biso   1.000  O
  H35      1.0000 0.92411  0.19733  0.78819  Biso   1.000  H
  H36      1.0000 0.02224  0.20283  0.81325  Biso   1.000  H
  O179     1.0000 0.51562  0.39931  0.64785  Biso   1.000  O
  H37      1.0000 0.58394  0.41696  0.66515  Biso   1.000  H
  H38      1.0000 0.52892  0.32744  0.64411  Biso   1.000  H
  O180     1.0000 0.20736  0.48493  0.74578  Biso   1.000  O
  H39      1.0000 0.20978  0.40837  0.74430  Biso   1.000  H
  H40      1.0000 0.16695  0.50025  0.76850  Biso   1.000  H
  O181     1.0000 0.23434  0.64210  0.50516  Biso   1.000  O
  H41      1.0000 0.24448  0.65645  0.48006  Biso   1.000  H
  H42      1.0000 0.25073  0.71246  0.51489  Biso   1.000  H
  O182     1.0000 0.56226  0.20543  0.62822  Biso   1.000  O
  H43      1.0000 0.63964  0.18883  0.62032  Biso   1.000  H
  H44      1.0000 0.52027  0.21742  0.60751  Biso   1.000  H
  O183     1.0000 0.11064  0.78525  0.90520  Biso   1.000  O
  H45      1.0000 0.08806  0.73986  0.88658  Biso   1.000  H
  H46      1.0000 0.19211  0.79237  0.90445  Biso   1.000  H
  O184     1.0000 0.09130  0.81824  0.96958  Biso   1.000  O
  H47      1.0000 0.08047  0.78150  0.94548  Biso   1.000  H
  H48      1.0000 0.11265  0.76893  0.98600  Biso   1.000  H
  O185     1.0000 0.04165  0.11984  0.58173  Biso   1.000  O
  H49      1.0000 0.10471  0.10911  0.59893  Biso   1.000  H
  H50      1.0000 0.05510  0.05901  0.56525  Biso   1.000  H
  O186     1.0000 0.12658  0.08050  0.92958  Biso   1.000  O
  H51      1.0000 0.05135  0.09980  0.94306  Biso   1.000  H
  H52      1.0000 0.09162  0.05256  0.90787  Biso   1.000  H
  O187     1.0000 0.34630  0.06653  0.84352  Biso   1.000  O
  H53      1.0000 0.33769  0.03992  0.86614  Biso   1.000  H
  H54      1.0000 0.33343  0.14306  0.84424  Biso   1.000  H
  O188     1.0000 0.96540  0.85995  0.63640  Biso   1.000  O
  H55      1.0000 0.03715  0.86156  0.62426  Biso   1.000  H
  H56      1.0000 0.92754  0.92684  0.62989  Biso   1.000  H
  O189     1.0000 0.01463  0.72450  0.50629  Biso   1.000  O
  H57      1.0000 0.09381  0.70328  0.50178  Biso   1.000  H
  H58      1.0000 0.98782  0.69869  0.48366  Biso   1.000  H
  O190     1.0000 0.87832  0.31120  0.48472  Biso   1.000  O
  H59      1.0000 0.89365  0.30448  0.50846  Biso   1.000  H
  H60      1.0000 0.88240  0.25065  0.47143  Biso   1.000  H
  O191     1.0000 0.33696  0.80641  0.80703  Biso   1.000  O
  H61      1.0000 0.32203  0.78065  0.78274  Biso   1.000  H
  H62      1.0000 0.35260  0.88188  0.80211  Biso   1.000  H
  O192     1.0000 0.27806  0.78501  0.73553  Biso   1.000  O
  H63      1.0000 0.31031  0.84620  0.72284  Biso   1.000  H
  H64      1.0000 0.19692  0.79974  0.72989  Biso   1.000  H
  O193     1.0000 0.54785  0.56878  0.95328  Biso   1.000  O
  H65      1.0000 0.60540  0.55532  0.96914  Biso   1.000  H
  H66      1.0000 0.56350  0.53685  0.93201  Biso   1.000  H
  O194     1.0000 0.29880  0.99262  0.71529  Biso   1.000  O
  H67      1.0000 0.22813  0.03490  0.72006  Biso   1.000  H
  H68      1.0000 0.36024  0.02976  0.70238  Biso   1.000  H
  O195     1.0000 0.30721  0.56916  0.89598  Biso   1.000  O
  H69      1.0000 0.28498  0.57313  0.92082  Biso   1.000  H
  H70      1.0000 0.38644  0.54407  0.89420  Biso   1.000  H
  O196     1.0000 0.53558  0.26304  0.72080  Biso   1.000  O
  H71      1.0000 0.48775  0.29477  0.70317  Biso   1.000  H
  H72      1.0000 0.60674  0.30908  0.72128  Biso   1.000  H
  O197     1.0000 0.76164  0.68187  0.55741  Biso   1.000  O
  H73      1.0000 0.67685  0.69751  0.55311  Biso   1.000  H
  H74      1.0000 0.76790  0.67652  0.58271  Biso   1.000  H
  O198     1.0000 0.80645  0.37092  0.80365  Biso   1.000  O
  H75      1.0000 0.82649  0.33317  0.78231  Biso   1.000  H
  H76      1.0000 0.74750  0.33386  0.81482  Biso   1.000  H
  O199     1.0000 0.60634  0.36554  0.57269  Biso   1.000  O
  H77      1.0000 0.61445  0.39178  0.59535  Biso   1.000  H
  H78      1.0000 0.53424  0.40071  0.56323  Biso   1.000  H
  O200     1.0000 0.82101  0.97068  0.93920  Biso   1.000  O
  H79      1.0000 0.76260  0.01170  0.92643  Biso   1.000  H
  H80      1.0000 0.89105  0.96394  0.92305  Biso   1.000  H
  O201     1.0000 0.11440  0.07689  0.74138  Biso   1.000  O
  H81      1.0000 0.15077  0.05741  0.76283  Biso   1.000  H
  H82      1.0000 0.11652  0.15395  0.73829  Biso   1.000  H
  O202     1.0000 0.77180  0.93105  0.72206  Biso   1.000  O
  H83      1.0000 0.76152  0.89286  0.70144  Biso   1.000  H
  H84      1.0000 0.85172  0.92310  0.73217  Biso   1.000  H
  O203     1.0000 0.11496  0.04634  0.48725  Biso   1.000  O
  H85      1.0000 0.08579  0.00164  0.50511  Biso   1.000  H
  H86      1.0000 0.13509  0.12059  0.49616  Biso   1.000  H
  O204     1.0000 0.91207  0.65274  0.72175  Biso   1.000  O
  H87      1.0000 0.93674  0.66066  0.74589  Biso   1.000  H
  H88      1.0000 0.95373  0.70683  0.71090  Biso   1.000  H
  O205     1.0000 0.68454  0.79445  0.95879  Biso   1.000  O
  H89      1.0000 0.69419  0.76853  0.98294  Biso   1.000  H
  H90      1.0000 0.74630  0.84145  0.95023  Biso   1.000  H
  O206     1.0000 0.20652  0.26950  0.73776  Biso   1.000  O
  H91      1.0000 0.27116  0.24320  0.74901  Biso   1.000  H
  H92      1.0000 0.22745  0.27504  0.71259  Biso   1.000  H
  O207     1.0000 0.52887  0.43910  0.81453  Biso   1.000  O
  H93      1.0000 0.47632  0.47542  0.79668  Biso   1.000  H
  H94      1.0000 0.54789  0.36910  0.80254  Biso   1.000  H
  O208     1.0000 0.23733  0.10604  0.63454  Biso   1.000  O
  H95      1.0000 0.26681  0.05668  0.65016  Biso   1.000  H
  H96      1.0000 0.24001  0.17167  0.64666  Biso   1.000  H
  O209     1.0000 0.59668  0.87092  0.76028  Biso   1.000  O
  H97      1.0000 0.66108  0.89596  0.74589  Biso   1.000  H
  H98      1.0000 0.53752  0.92088  0.76674  Biso   1.000  H
  O210     1.0000 0.93045  0.15678  0.95638  Biso   1.000  O
  H99      1.0000 0.94825  0.16373  0.98159  Biso   1.000  H
  H100     1.0000 0.86797  0.10476  0.95684  Biso   1.000  H
  O211     1.0000 0.31465  0.03109  0.57313  Biso   1.000  O
  H101     1.0000 0.28396  0.05872  0.59554  Biso   1.000  H
  H102     1.0000 0.34240  0.09708  0.56188  Biso   1.000  H
  O212     1.0000 0.29741  0.52361  0.58277  Biso   1.000  O
  H103     1.0000 0.31312  0.47623  0.56276  Biso   1.000  H
  H104     1.0000 0.23294  0.57382  0.57624  Biso   1.000  H
  O213     1.0000 0.64296  0.25645  0.83560  Biso   1.000  O
  H105     1.0000 0.62431  0.27761  0.85934  Biso   1.000  H
  H106     1.0000 0.62492  0.18136  0.83629  Biso   1.000  H
  O214     1.0000 0.70548  0.11947  0.71069  Biso   1.000  O
  H107     1.0000 0.62506  0.13690  0.70976  Biso   1.000  H
  H108     1.0000 0.72063  0.04167  0.71007  Biso   1.000  H
  O215     1.0000 0.04404  0.82343  0.70324  Biso   1.000  O
  H109     1.0000 0.04591  0.88209  0.71922  Biso   1.000  H
  H110     1.0000 0.03053  0.85140  0.68025  Biso   1.000  H
  O216     1.0000 0.81973  0.60203  0.94140  Biso   1.000  O
  H111     1.0000 0.79248  0.57377  0.91802  Biso   1.000  H
  H112     1.0000 0.77446  0.66479  0.94600  Biso   1.000  H
  O217     1.0000 0.33977  0.81505  0.90295  Biso   1.000  O
  H113     1.0000 0.36529  0.79005  0.92419  Biso   1.000  H
  H114     1.0000 0.34488  0.89279  0.90479  Biso   1.000  H
  O218     1.0000 0.56525  0.66310  0.76088  Biso   1.000  O
  H115     1.0000 0.49200  0.63224  0.76528  Biso   1.000  H
  H116     1.0000 0.56414  0.73667  0.75731  Biso   1.000  H
  O219     1.0000 0.22179  0.57682  0.96426  Biso   1.000  O
  H117     1.0000 0.13915  0.59987  0.96282  Biso   1.000  H
  H118     1.0000 0.25875  0.62161  0.98076  Biso   1.000  H
  O220     1.0000 0.47347  0.03260  0.67577  Biso   1.000  O
  H119     1.0000 0.49723  0.95860  0.66811  Biso   1.000  H
  H120     1.0000 0.49523  0.08613  0.66086  Biso   1.000  H
  O221     1.0000 0.33486  0.27880  0.83595  Biso   1.000  O
  H121     1.0000 0.25669  0.29652  0.83070  Biso   1.000  H
  H122     1.0000 0.36533  0.32091  0.85315  Biso   1.000  H
  O222     1.0000 0.84793  0.24847  0.74630  Biso   1.000  O
  H123     1.0000 0.90440  0.26526  0.72743  Biso   1.000  H
  H124     1.0000 0.78964  0.19384  0.74012  Biso   1.000  H
  O223     1.0000 0.42997  0.29898  0.93780  Biso   1.000  O
  H125     1.0000 0.44359  0.34102  0.95923  Biso   1.000  H
  H126     1.0000 0.34196  0.29839  0.93483  Biso   1.000  H
  O224     1.0000 0.22689  0.30746  0.67116  Biso   1.000  O
  H127     1.0000 0.14768  0.32488  0.66529  Biso   1.000  H
  H128     1.0000 0.25825  0.37654  0.66406  Biso   1.000  H
  O225     1.0000 0.40642  0.98200  0.77843  Biso   1.000  O
  H129     1.0000 0.42644  0.04839  0.78752  Biso   1.000  H
  H130     1.0000 0.36415  0.99206  0.75679  Biso   1.000  H
  O226     1.0000 0.46897  0.08539  0.49893  Biso   1.000  O
  H131     1.0000 0.44168  0.09395  0.47555  Biso   1.000  H
  H132     1.0000 0.55854  0.08364  0.49467  Biso   1.000  H
  O227     1.0000 0.10653  0.51751  0.80137  Biso   1.000  O
  H133     1.0000 0.03065  0.54854  0.80057  Biso   1.000  H
  H134     1.0000 0.15247  0.56897  0.81457  Biso   1.000  H
  O228     1.0000 0.90818  0.86340  0.82334  Biso   1.000  O
  H135     1.0000 0.93772  0.91802  0.83974  Biso   1.000  H
  H136     1.0000 0.82777  0.88189  0.82361  Biso   1.000  H
  O229     1.0000 0.68461  0.07466  0.90439  Biso   1.000  O
  H137     1.0000 0.62694  0.09242  0.92293  Biso   1.000  H
  H138     1.0000 0.62890  0.05899  0.88276  Biso   1.000  H
  O230     1.0000 0.08481  0.61817  0.57084  Biso   1.000  O
  H139     1.0000 0.04165  0.58459  0.59111  Biso   1.000  H
  H140     1.0000 0.02731  0.64720  0.55631  Biso   1.000  H
  O231     1.0000 0.68046  0.77386  0.67438  Biso   1.000  O
  H141     1.0000 0.60903  0.80665  0.66358  Biso   1.000  H
  H142     1.0000 0.65885  0.71508  0.68949  Biso   1.000  H
  O232     1.0000 0.96339  0.31278  0.68966  Biso   1.000  O
  H143     1.0000 0.89556  0.30501  0.67644  Biso   1.000  H
  H144     1.0000 0.98508  0.38619  0.68972  Biso   1.000  H
  O233     1.0000 0.16388  0.78362  0.60683  Biso   1.000  O
  H145     1.0000 0.12601  0.72166  0.59450  Biso   1.000  H
  H146     1.0000 0.17993  0.75147  0.62985  Biso   1.000  H
  O234     1.0000 0.88639  0.17477  0.87779  Biso   1.000  O
  H147     1.0000 0.80900  0.15823  0.88487  Biso   1.000  H
  H148     1.0000 0.88124  0.21143  0.85592  Biso   1.000  H
  O235     1.0000 0.69942  0.01405  0.57636  Biso   1.000  O
  H149     1.0000 0.69859  0.07552  0.56082  Biso   1.000  H
  H150     1.0000 0.71298  0.95826  0.55971  Biso   1.000  H
  O236     1.0000 0.69450  0.40308  0.71089  Biso   1.000  O
  H151     1.0000 0.70238  0.48019  0.71501  Biso   1.000  H
  H152     1.0000 0.76190  0.36645  0.71983  Biso   1.000  H
  O237     1.0000 0.42146  0.42969  0.53781  Biso   1.000  O
  H153     1.0000 0.40607  0.36078  0.53071  Biso   1.000  H
  H154     1.0000 0.44719  0.47257  0.51672  Biso   1.000  H
  O238     1.0000 0.62532  0.34308  0.90058  Biso   1.000  O
  H155     1.0000 0.67880  0.31989  0.91849  Biso   1.000  H
  H156     1.0000 0.54930  0.33735  0.91146  Biso   1.000  H
  O239     1.0000 0.94620  0.66081  0.79334  Biso   1.000  O
  H157     1.0000 0.93374  0.73406  0.79777  Biso   1.000  H
  H158     1.0000 0.87048  0.62941  0.80102  Biso   1.000  H
  O240     1.0000 0.03963  0.51011  0.69675  Biso   1.000  O
  H159     1.0000 0.10473  0.50927  0.71151  Biso   1.000  H
  H160     1.0000 0.98912  0.54850  0.71164  Biso   1.000  H
  O241     1.0000 0.87637  0.04590  0.61530  Biso   1.000  O
  H161     1.0000 0.80396  0.03495  0.60369  Biso   1.000  H
  H162     1.0000 0.93163  0.08148  0.60059  Biso   1.000  H
  O242     1.0000 0.18288  0.23685  0.50123  Biso   1.000  O
  H163     1.0000 0.14824  0.29749  0.51409  Biso   1.000  H
  H164     1.0000 0.19463  0.24412  0.47521  Biso   1.000  H
  O243     1.0000 0.52693  0.12374  0.94896  Biso   1.000  O
  H165     1.0000 0.48650  0.19175  0.94719  Biso   1.000  H
  H166     1.0000 0.51080  0.09486  0.97234  Biso   1.000  H
  O244     1.0000 0.23527  0.84379  0.54035  Biso   1.000  O
  H167     1.0000 0.21143  0.82396  0.56474  Biso   1.000  H
  H168     1.0000 0.29367  0.89511  0.54271  Biso   1.000  H
  O245     1.0000 0.67081  0.86647  0.82272  Biso   1.000  O
  H169     1.0000 0.65804  0.85528  0.79649  Biso   1.000  H
  H170     1.0000 0.63666  0.81079  0.83631  Biso   1.000  H
  O246     1.0000 0.01237  0.00078  0.87007  Biso   1.000  O
  H171     1.0000 0.95987  0.06147  0.86647  Biso   1.000  H
  H172     1.0000 0.06140  0.99955  0.84872  Biso   1.000  H
  O247     1.0000 0.09556  0.46631  0.51123  Biso   1.000  O
  H173     1.0000 0.04786  0.48037  0.49164  Biso   1.000  H
  H174     1.0000 0.14245  0.52551  0.51550  Biso   1.000  H
  O248     1.0000 0.95193  0.94046  0.76292  Biso   1.000  O
  H175     1.0000 0.94543  0.90538  0.78443  Biso   1.000  H
  H176     1.0000 0.97403  0.01405  0.76653  Biso   1.000  H
  O249     1.0000 0.68388  0.11373  0.48682  Biso   1.000  O
  H177     1.0000 0.68855  0.14465  0.46328  Biso   1.000  H
  H178     1.0000 0.69485  0.15802  0.50622  Biso   1.000  H
  O250     1.0000 0.46232  0.78319  0.96261  Biso   1.000  O
  H179     1.0000 0.46759  0.73587  0.98190  Biso   1.000  H
  H180     1.0000 0.54256  0.78447  0.95293  Biso   1.000  H
  O251     1.0000 0.78747  0.21409  0.65103  Biso   1.000  O
  H181     1.0000 0.83064  0.15777  0.64045  Biso   1.000  H
  H182     1.0000 0.76317  0.18092  0.67290  Biso   1.000  H
  O252     1.0000 0.79728  0.48590  0.88426  Biso   1.000  O
  H183     1.0000 0.72213  0.45389  0.88396  Biso   1.000  H
  H184     1.0000 0.80348  0.51572  0.86144  Biso   1.000  H
  O253     1.0000 0.56851  0.04556  0.84188  Biso   1.000  O
  H185     1.0000 0.59386  0.97208  0.83535  Biso   1.000  H
  H186     1.0000 0.48601  0.05410  0.83961  Biso   1.000  H
  O254     1.0000 0.10499  0.31887  0.83255  Biso   1.000  O
  H187     1.0000 0.08350  0.38232  0.81871  Biso   1.000  H
  H188     1.0000 0.08757  0.34007  0.85734  Biso   1.000  H
  O255     1.0000 0.38321  0.21296  0.54003  Biso   1.000  O
  H189     1.0000 0.41857  0.16775  0.52106  Biso   1.000  H
  H190     1.0000 0.30679  0.21742  0.53370  Biso   1.000  H
  O256     1.0000 0.19005  0.64910  0.84648  Biso   1.000  O
  H191     1.0000 0.21733  0.72056  0.84050  Biso   1.000  H
  H192     1.0000 0.22672  0.62497  0.86784  Biso   1.000  H
  O257     1.0000 0.81816  0.57916  0.49670  Biso   1.000  O
  H193     1.0000 0.73009  0.65977  0.45383  Biso   1.000  H
  H194     1.0000 0.81449  0.62606  0.51729  Biso   1.000  H
  O258     1.0000 0.33670  0.01942  0.91289  Biso   1.000  O
  H195     1.0000 0.39099  0.05664  0.92691  Biso   1.000  H
  H196     1.0000 0.26365  0.02785  0.92426  Biso   1.000  H
  O259     1.0000 0.49500  0.89897  0.57891  Biso   1.000  O
  H197     1.0000 0.56472  0.94310  0.57810  Biso   1.000  H
  H198     1.0000 0.43537  0.95163  0.57194  Biso   1.000  H
  O260     1.0000 0.21648  0.27898  0.92766  Biso   1.000  O
  H199     1.0000 0.15382  0.32128  0.91890  Biso   1.000  H
  H200     1.0000 0.18440  0.20514  0.92416  Biso   1.000  H
  O261     1.0000 0.76207  0.87487  0.52228  Biso   1.000  O
  H201     1.0000 0.68824  0.84335  0.52375  Biso   1.000  H
  H202     1.0000 0.80998  0.82329  0.53581  Biso   1.000  H
  O262     1.0000 0.15764  0.96656  0.81014  Biso   1.000  O
  H203     1.0000 0.19188  0.89759  0.80524  Biso   1.000  H
  H204     1.0000 0.22297  0.01067  0.81935  Biso   1.000  H
  O263     1.0000 0.47655  0.59277  0.49844  Biso   1.000  O
  H205     1.0000 0.40037  0.59906  0.50849  Biso   1.000  H
  H206     1.0000 0.46678  0.61432  0.47409  Biso   1.000  H
  O264     1.0000 0.01743  0.60212  0.96793  Biso   1.000  O
  H207     1.0000 0.99942  0.63729  0.99063  Biso   1.000  H
  H208     1.0000 0.95991  0.63056  0.95206  Biso   1.000  H
  O265     1.0000 0.92894  0.28554  0.55767  Biso   1.000  O
  H209     1.0000 0.89317  0.33032  0.57617  Biso   1.000  H
  H210     1.0000 0.97976  0.23787  0.56942  Biso   1.000  H
  O266     1.0000 0.49764  0.72993  0.84899  Biso   1.000  O
  H211     1.0000 0.46222  0.75961  0.86973  Biso   1.000  H
  H212     1.0000 0.43943  0.75814  0.83067  Biso   1.000  H
  O267     1.0000 0.83886  0.69460  0.62867  Biso   1.000  O
  H213     1.0000 0.88637  0.75641  0.62999  Biso   1.000  H
  H214     1.0000 0.77760  0.70829  0.64582  Biso   1.000  H
  O268     1.0000 0.70991  0.19782  0.54743  Biso   1.000  O
  H215     1.0000 0.78988  0.21467  0.55142  Biso   1.000  H
  H216     1.0000 0.66907  0.26407  0.55574  Biso   1.000  H
  O269     1.0000 0.77148  0.55613  0.81889  Biso   1.000  O
  H217     1.0000 0.69406  0.57385  0.81017  Biso   1.000  H
  H218     1.0000 0.79532  0.49079  0.80614  Biso   1.000  H
  O270     1.0000 0.03492  0.34076  0.89746  Biso   1.000  O
  H219     1.0000 0.98229  0.27884  0.89647  Biso   1.000  H
  H220     1.0000 0.97736  0.39584  0.90150  Biso   1.000  H
  O271     1.0000 0.37122  0.57774  0.78493  Biso   1.000  O
  H221     1.0000 0.31331  0.54625  0.76981  Biso   1.000  H
  H222     1.0000 0.32586  0.60177  0.80514  Biso   1.000  H
  O272     1.0000 0.75447  0.29331  0.96311  Biso   1.000  O
  H223     1.0000 0.73780  0.23360  0.97954  Biso   1.000  H
  H224     1.0000 0.83455  0.28487  0.95769  Biso   1.000  H
  O273     1.0000 0.51583  0.53555  0.88111  Biso   1.000  O
  H225     1.0000 0.51179  0.50211  0.85755  Biso   1.000  H
  H226     1.0000 0.51244  0.60843  0.87359  Biso   1.000  H
  O274     1.0000 0.99608  0.51498  0.63414  Biso   1.000  O
  H227     1.0000 0.94709  0.57647  0.63037  Biso   1.000  H
  H228     1.0000 0.04153  0.52440  0.65823  Biso   1.000  H
  O275     1.0000 0.82439  0.38718  0.61188  Biso   1.000  O
  H229     1.0000 0.79961  0.33706  0.63007  Biso   1.000  H
  H230     1.0000 0.89886  0.42036  0.62002  Biso   1.000  H
  O276     1.0000 0.49879  0.85156  0.64492  Biso   1.000  O
  H231     1.0000 0.45022  0.79448  0.65051  Biso   1.000  H
  H232     1.0000 0.48693  0.86503  0.62005  Biso   1.000  H
  O277     1.0000 0.01905  0.94177  0.54100  Biso   1.000  O
  H233     1.0000 0.95311  0.91895  0.53089  Biso   1.000  H
  H234     1.0000 0.08140  0.89005  0.53667  Biso   1.000  H
  O278     1.0000 0.31522  0.48331  0.65217  Biso   1.000  O
  H235     1.0000 0.39646  0.46177  0.65550  Biso   1.000  H
  H236     1.0000 0.30561  0.49369  0.62480  Biso   1.000  H
  O279     1.0000 0.29942  0.69468  0.65834  Biso   1.000  O
  H237     1.0000 0.31052  0.61891  0.65792  Biso   1.000  H
  H238     1.0000 0.29077  0.70105  0.68340  Biso   1.000  H
  O280     1.0000 0.69811  0.60536  0.71087  Biso   1.000  O
  H239     1.0000 0.77179  0.63823  0.71333  Biso   1.000  H
  H240     1.0000 0.65086  0.62727  0.73031  Biso   1.000  H
  O281     1.0000 0.42351  0.19425  0.77644  Biso   1.000  O
  H241     1.0000 0.47719  0.22811  0.76191  Biso   1.000  H
  H242     1.0000 0.42463  0.23580  0.79764  Biso   1.000  H
